# Generated by pormake.
# Topology scu, (8,4)-cn, num edge types: 1
# Building blocks:
#     Node 0, Type 0, BuildingBlock: TAGTUT_clean_sbu_3, # of connection points: 8
#     Node 1, Type 1, BuildingBlock: ESEHIV_clean_sbu_0, # of connection points: 4
#     Node 2, Type 1, BuildingBlock: ESEHIV_clean_sbu_0, # of connection points: 4
#     Edge 3, Type (0, 1), BuildingBlock: XIVTED_clean_linker_0, # of connection points: 2
#     Edge 4, Type (0, 1), BuildingBlock: XIVTED_clean_linker_0, # of connection points: 2
#     Edge 5, Type (0, 1), BuildingBlock: XIVTED_clean_linker_0, # of connection points: 2
#     Edge 6, Type (0, 1), BuildingBlock: XIVTED_clean_linker_0, # of connection points: 2
#     Edge 7, Type (0, 1), BuildingBlock: XIVTED_clean_linker_0, # of connection points: 2
#     Edge 8, Type (0, 1), BuildingBlock: XIVTED_clean_linker_0, # of connection points: 2
#     Edge 9, Type (0, 1), BuildingBlock: XIVTED_clean_linker_0, # of connection points: 2
#     Edge 10, Type (0, 1), BuildingBlock: XIVTED_clean_linker_0, # of connection points: 2
# Relax obj value: 0.025
# Max RMSD: 0.107
# Mean RMSD: 0.103
data_MOF--net-scu--node1-TAGTUT_clean_sbu_3--node2-ESEHIV_clean_sbu_0--edge1-XIVTED_clean_linker_0
_symmetry_space_group_name_H-M    P1
_symmetry_Int_Tables_number       1
_symmetry_cell_setting            triclinic
loop_
_symmetry_equiv_pos_as_xyz
'x, y, z'
_cell_length_a     28.78631
_cell_length_b     24.224994
_cell_length_c     20.487549
_cell_angle_alpha  94.448174
_cell_angle_beta   95.358807
_cell_angle_gamma 89.821838
loop_
_atom_site_label
_atom_site_type_symbol
_atom_site_fract_x
_atom_site_fract_y
_atom_site_fract_z
_atom_type_partial_charge
C0 C 0.99523 0.91491 0.07586 0.0
C1 C 0.82379 0.99214 0.05656 0.0
C2 C 0.85721 0.04171 0.86844 0.0
Mg3 Mg 0.08739 0.95107 0.0093 0.0
Mg4 Mg 0.10677 0.08096 0.98653 0.0
O5 O 0.06532 0.02111 0.96968 0.0
Mg6 Mg 0.99904 0.02479 0.99407 0.0
O7 O 0.93283 0.02 0.01795 0.0
Mg8 Mg 0.9113 0.94881 0.96678 0.0
Mg9 Mg 0.89119 0.07893 0.0097 0.0
C10 C 0.01498 0.13866 0.92208 0.0
O11 O 0.00996 0.09875 0.07429 0.0
O12 O 0.15282 0.95568 0.95034 0.0
O13 O 0.93909 0.13982 0.06138 0.0
O14 O 0.12841 0.99768 0.09929 0.0
O15 O 0.16108 0.04514 0.93104 0.0
O16 O 0.13421 0.08804 0.08837 0.0
O17 O 0.97946 0.95412 0.91556 0.0
O18 O 0.04566 0.90581 0.92001 0.0
C19 C 1.00388 0.9133 0.89517 0.0
C20 C 0.17378 0.99433 0.92465 0.0
O21 O 0.98751 0.09704 0.92524 0.0
O22 O 0.84573 0.95317 0.02615 0.0
O23 O 0.05774 0.14072 0.94685 0.0
O24 O 0.86969 0.99338 0.88414 0.0
O25 O 0.83577 0.0432 0.0574 0.0
O26 O 0.86648 0.08442 0.90786 0.0
O27 O 0.01911 0.95604 0.06173 0.0
O28 O 0.95369 0.90584 0.04895 0.0
C29 C 0.14206 0.04621 0.12183 0.0
C30 C 0.98197 0.13951 0.08564 0.0
Cu31 Cu 0.03253 0.54515 0.50936 0.0
N32 N 0.05572 0.51224 0.58464 0.0
N33 N 0.05578 0.45409 0.66399 0.0
C34 C 0.03935 0.46424 0.60232 0.0
C35 C 0.08419 0.49732 0.68564 0.0
C36 C 0.08402 0.53326 0.63644 0.0
O37 O 0.01712 0.48714 0.44041 0.0
C38 C 0.95925 0.59105 0.582 0.0
O39 O 0.9613 0.54574 0.61338 0.0
H40 H 0.01317 0.43942 0.57207 0.0
H41 H 0.10134 0.57306 0.63939 0.0
N42 N 0.07474 0.59269 0.47874 0.0
N43 N 0.09466 0.66245 0.42157 0.0
C44 C 0.05977 0.63637 0.44636 0.0
C45 C 0.12113 0.59059 0.47475 0.0
C46 C 0.13356 0.63371 0.43906 0.0
C47 C 0.04945 0.45275 0.42866 0.0
O48 O 0.09 0.45837 0.46373 0.0
H49 H 0.02322 0.64669 0.4379 0.0
H50 H 0.1439 0.55895 0.4941 0.0
O51 O 0.98113 0.5932 0.53107 0.0
H52 H 0.10269 0.50343 0.73412 0.0
H53 H 0.16818 0.64234 0.42578 0.0
Cu54 Cu 0.5003 0.96434 0.49156 0.0
N55 N 0.47035 0.92097 0.54662 0.0
N56 N 0.42281 0.90521 0.62356 0.0
C57 C 0.43599 0.9411 0.5816 0.0
C58 C 0.44993 0.8602 0.61428 0.0
C59 C 0.47961 0.87026 0.56705 0.0
O60 O 0.45115 0.00861 0.44926 0.0
C61 C 0.57834 0.03917 0.54145 0.0
O62 O 0.57486 0.06447 0.48681 0.0
H63 H 0.42161 0.98208 0.57692 0.0
H64 H 0.50708 0.84348 0.55088 0.0
N65 N 0.52961 0.92299 0.42636 0.0
N66 N 0.5756 0.90612 0.34484 0.0
C67 C 0.55824 0.94485 0.38685 0.0
C68 C 0.52837 0.86831 0.40863 0.0
C69 C 0.55691 0.85772 0.35848 0.0
C70 C 0.41765 0.97829 0.42167 0.0
O71 O 0.42191 0.92424 0.42119 0.0
H72 H 0.56673 0.98842 0.38976 0.0
H73 H 0.50818 0.83826 0.43041 0.0
O74 O 0.54863 0.00238 0.55034 0.0
H75 H 0.44981 0.82373 0.64161 0.0
H76 H 0.56305 0.81762 0.33375 0.0
H77 H 0.94214 0.24123 0.0922 0.0
H78 H 0.10768 0.36598 0.40253 0.0
H79 H 0.05779 0.14972 0.17948 0.0
H80 H 0.97531 0.43597 0.3352 0.0
H81 H 0.09577 0.29138 0.315 0.0
H82 H 0.96098 0.31837 0.17282 0.0
C83 C 0.97171 0.23734 0.12831 0.0
C84 C 0.99792 0.18837 0.12978 0.0
C85 C 0.06941 0.3231 0.31941 0.0
C86 C 0.01966 0.27727 0.22288 0.0
C87 C 0.07611 0.36574 0.3693 0.0
C88 C 0.04233 0.40728 0.37627 0.0
C89 C 0.02881 0.32224 0.27583 0.0
C90 C 1.00217 0.40478 0.33187 0.0
C91 C 0.98239 0.28158 0.17448 0.0
C92 C 0.03647 0.18651 0.17687 0.0
N93 N 0.9966 0.36304 0.28353 0.0
N94 N 0.04598 0.23026 0.2221 0.0
H95 H 0.76039 0.06262 0.10949 0.0
H96 H 0.63635 0.832 0.29288 0.0
H97 H 0.79654 0.88943 0.08855 0.0
H98 H 0.5899 0.0013 0.28748 0.0
H99 H 0.69454 0.85076 0.2174 0.0
H100 H 0.69766 0.03986 0.17477 0.0
C101 C 0.75511 0.0197 0.11843 0.0
C102 C 0.78406 0.97793 0.09355 0.0
C103 C 0.67142 0.88368 0.2326 0.0
C104 C 0.71195 0.95149 0.16896 0.0
C105 C 0.63801 0.87293 0.27551 0.0
C106 C 0.60833 0.91525 0.29734 0.0
C107 C 0.67526 0.93715 0.21142 0.0
C108 C 0.61254 0.96764 0.2734 0.0
C109 C 0.71911 0.00669 0.15571 0.0
C110 C 0.77514 0.92302 0.10662 0.0
N111 N 0.64543 0.97709 0.23215 0.0
N112 N 0.74008 0.91143 0.1438 0.0
H113 H 0.94545 0.85491 0.15157 0.0
H114 H 0.14852 0.68713 0.32446 0.0
H115 H 0.08711 0.89474 0.11903 0.0
H116 H 0.02688 0.73992 0.42037 0.0
H117 H 0.12864 0.75361 0.24118 0.0
H118 H 0.97497 0.79921 0.24023 0.0
C119 C 0.98285 0.85164 0.16276 0.0
C120 C 0.01387 0.87953 0.12781 0.0
C121 C 0.10682 0.75084 0.28111 0.0
C122 C 0.04788 0.81551 0.22941 0.0
C123 C 0.11819 0.71318 0.32873 0.0
C124 C 0.08869 0.70697 0.37868 0.0
C125 C 0.06549 0.78157 0.28332 0.0
C126 C 0.04979 0.74186 0.38166 0.0
C127 C 0.99964 0.82021 0.21377 0.0
C128 C 0.06204 0.87406 0.145 0.0
N129 N 0.03891 0.77685 0.3341 0.0
N130 N 0.07772 0.84213 0.19441 0.0
H131 H 0.20857 0.12623 0.16119 0.0
H132 H 0.33249 0.9327 0.42193 0.0
H133 H 0.14944 0.97671 0.22075 0.0
H134 H 0.40091 0.07481 0.35911 0.0
H135 H 0.25967 0.9605 0.36436 0.0
H136 H 0.27262 0.1204 0.24826 0.0
C137 C 0.20832 0.09306 0.1937 0.0
C138 C 0.1739 0.05145 0.18314 0.0
C139 C 0.29031 0.98614 0.36337 0.0
C140 C 0.24722 0.0443 0.28216 0.0
C141 C 0.33203 0.97019 0.39625 0.0
C142 C 0.37293 0.00104 0.39433 0.0
C143 C 0.28931 0.03293 0.32696 0.0
C144 C 0.37011 0.04977 0.36139 0.0
C145 C 0.24512 0.08955 0.24304 0.0
C146 C 0.1755 0.00931 0.22649 0.0
N147 N 0.32906 0.06379 0.32787 0.0
N148 N 0.21177 0.00653 0.27345 0.0
H149 H 0.04142 0.88845 0.78096 0.0
H150 H 0.9175 0.60658 0.69744 0.0
H151 H 0.92445 0.84988 0.88634 0.0
H152 H 0.97139 0.69637 0.54656 0.0
H153 H 0.91623 0.69332 0.76735 0.0
H154 H 0.01578 0.81671 0.6947 0.0
C155 C 0.00992 0.86515 0.78527 0.0
C156 C 0.98492 0.87472 0.84037 0.0
C157 C 0.92715 0.69408 0.71824 0.0
C158 C 0.95598 0.79183 0.74306 0.0
C159 C 0.92787 0.64462 0.67825 0.0
C160 C 0.94552 0.64385 0.6165 0.0
C161 C 0.94501 0.74264 0.69669 0.0
C162 C 0.95818 0.6946 0.59413 0.0
C163 C 0.99516 0.82447 0.73603 0.0
C164 C 0.94441 0.84357 0.84414 0.0
N165 N 0.95881 0.74163 0.63484 0.0
N166 N 0.93163 0.80246 0.79665 0.0
H167 H 0.23181 0.06531 0.87349 0.0
H168 H 0.37123 0.82937 0.67752 0.0
H169 H 0.20575 0.89091 0.88417 0.0
H170 H 0.39777 0.00473 0.67938 0.0
H171 H 0.31221 0.84922 0.75531 0.0
H172 H 0.29409 0.04222 0.80402 0.0
C173 C 0.23921 0.02204 0.86141 0.0
C174 C 0.2132 0.98003 0.8847 0.0
C175 C 0.33108 0.88324 0.73861 0.0
C176 C 0.28496 0.95312 0.80436 0.0
C177 C 0.36487 0.87192 0.69443 0.0
C178 C 0.38916 0.91543 0.67109 0.0
C179 C 0.3217 0.93845 0.75966 0.0
C180 C 0.3793 0.96983 0.69454 0.0
C181 C 0.27495 0.00885 0.82161 0.0
C182 C 0.22481 0.92471 0.86739 0.0
N183 N 0.34638 0.97968 0.73718 0.0
N184 N 0.2597 0.91284 0.82799 0.0
H185 H 0.01449 0.24498 0.97125 0.0
H186 H 0.02345 0.35251 0.61513 0.0
H187 H 0.98406 0.14099 0.79222 0.0
H188 H 0.05423 0.45402 0.79651 0.0
H189 H 0.99806 0.27815 0.67772 0.0
H190 H 0.01502 0.32586 0.90724 0.0
C191 C 1.0063 0.23965 0.91839 0.0
C192 C 0.99909 0.18662 0.8867 0.0
C193 C 0.01008 0.31682 0.70379 0.0
C194 C 1.00176 0.27835 0.81281 0.0
C195 C 0.02462 0.35936 0.66808 0.0
C196 C 0.0414 0.40959 0.70058 0.0
C197 C 0.01234 0.3244 0.77264 0.0
C198 C 0.04247 0.41578 0.76937 0.0
C199 C 1.00716 0.28565 0.88177 0.0
C200 C 0.98928 0.18145 0.81827 0.0
N201 N 0.02834 0.37365 0.80303 0.0
N202 N 0.99178 0.22674 0.78331 0.0
H203 H 0.81974 0.13605 0.81668 0.0
H204 H 0.60766 0.96985 0.6348 0.0
H205 H 0.8192 0.95771 0.78396 0.0
H206 H 0.64665 0.12086 0.55439 0.0
H207 H 0.68023 0.97353 0.70554 0.0
H208 H 0.75381 0.13952 0.73143 0.0
C209 C 0.8065 0.09778 0.79089 0.0
C210 C 0.82475 0.04641 0.80837 0.0
C211 C 0.67295 0.00592 0.67244 0.0
C212 C 0.74906 0.05034 0.71251 0.0
C213 C 0.63124 0.00424 0.63234 0.0
C214 C 0.6209 0.04514 0.58828 0.0
C215 C 0.70459 0.04931 0.66987 0.0
C216 C 0.65328 0.08843 0.58752 0.0
C217 C 0.7689 0.0999 0.74241 0.0
C218 C 0.80618 0.99825 0.77298 0.0
N219 N 0.69373 0.08969 0.62818 0.0
N220 N 0.76887 0.00137 0.72784 0.0
loop_
_geom_bond_atom_site_label_1
_geom_bond_atom_site_label_2
_geom_bond_distance
_geom_bond_site_symmetry_2
_ccdc_geom_bond_type
C0 O27 1.312 1_655 S
C0 O28 1.208 . S
C1 O22 1.331 1_545 S
C1 O25 1.244 . S
C2 O24 1.264 1_545 S
C2 O26 1.273 . S
Mg3 O5 1.936 1_564 S
Mg3 O12 2.081 1_554 S
Mg3 O14 2.023 . S
Mg3 O18 2.031 1_554 S
Mg3 O27 2.291 . S
Mg4 O5 1.963 . S
Mg4 O15 1.942 . S
Mg4 O16 1.955 1_556 S
Mg4 O23 1.986 . S
O5 Mg3 1.936 1_546 S
O5 Mg4 1.963 . S
O5 Mg6 1.915 1_556 S
Mg6 O5 1.915 1_554 S
Mg6 O7 1.915 1_455 S
Mg6 O11 2.013 . S
Mg6 O17 2.114 1_444 S
Mg6 O21 2.013 1_454 S
Mg6 O27 2.114 1_545 S
O7 Mg6 1.915 1_655 S
O7 Mg8 1.936 1_544 S
O7 Mg9 1.963 . S
Mg8 O7 1.936 1_566 S
Mg8 O17 2.291 . S
Mg8 O22 2.081 1_556 S
Mg8 O24 2.023 . S
Mg8 O28 2.031 1_556 S
Mg9 O7 1.963 . S
Mg9 O13 1.986 . S
Mg9 O25 1.942 . S
Mg9 O26 1.955 1_554 S
C10 O21 1.191 1_455 S
C10 O23 1.307 . S
O11 Mg6 2.013 . S
O11 C30 1.191 1_455 S
O12 Mg3 2.081 1_556 S
O12 C20 1.331 . S
O13 Mg9 1.986 . S
O13 C30 1.307 . S
O14 Mg3 2.023 . S
O14 C29 1.264 1_565 S
O15 Mg4 1.942 . S
O15 C20 1.244 1_545 S
O16 Mg4 1.955 1_554 S
O16 C29 1.273 . S
O17 Mg6 2.114 1_666 S
O17 Mg8 2.291 . S
O17 C19 1.312 1_655 S
O18 Mg3 2.031 1_556 S
O18 C19 1.208 . S
C19 O17 1.312 1_455 S
C19 O18 1.208 . S
C20 O12 1.331 . S
C20 O15 1.244 1_565 S
O21 Mg6 2.013 1_656 S
O21 C10 1.191 1_655 S
O22 C1 1.331 1_565 S
O22 Mg8 2.081 1_554 S
O23 Mg4 1.986 . S
O23 C10 1.307 . S
O24 C2 1.264 1_565 S
O24 Mg8 2.023 . S
O25 C1 1.244 . S
O25 Mg9 1.942 . S
O26 C2 1.273 . S
O26 Mg9 1.955 1_556 S
O27 C0 1.312 1_455 S
O27 Mg3 2.291 . S
O27 Mg6 2.114 1_565 S
O28 C0 1.208 . S
O28 Mg8 2.031 1_554 S
C29 O14 1.264 1_545 S
C29 O16 1.273 . S
C30 O11 1.191 1_655 S
C30 O13 1.307 . S
Cu31 N32 1.999 . S
Cu31 O37 1.974 . S
Cu31 N42 1.985 . S
Cu31 O51 1.959 . S
N32 Cu31 1.999 . S
N32 C34 1.263 . S
N32 C36 1.389 . S
N33 C34 1.358 . S
N33 C35 1.400 . S
C34 N32 1.263 . S
C34 N33 1.358 . S
C34 H40 0.930 1_655 S
C35 N33 1.400 . S
C35 C36 1.351 . S
C35 H52 0.930 . S
C36 N32 1.389 . S
C36 C35 1.351 . S
C36 H41 0.930 . S
O37 Cu31 1.974 . S
O37 C47 1.282 1_655 S
C38 O39 1.261 . S
C38 O51 1.251 1_455 S
O39 C38 1.261 . S
H40 C34 0.930 1_455 S
H41 C36 0.930 . S
N42 Cu31 1.985 . S
N42 C44 1.335 . S
N42 C45 1.390 1_655 S
N43 C44 1.345 . S
N43 C46 1.336 1_655 S
C44 N42 1.335 . S
C44 N43 1.345 . S
C44 H49 0.930 . S
C45 N42 1.390 1_455 S
C45 C46 1.346 . S
C45 H50 0.930 . S
C46 N43 1.336 1_455 S
C46 C45 1.346 . S
C46 H53 0.929 . S
C47 O37 1.282 1_455 S
C47 O48 1.216 . S
O48 C47 1.216 . S
H49 C44 0.930 . S
H50 C45 0.930 . S
O51 Cu31 1.959 . S
O51 C38 1.251 1_655 S
H52 C35 0.930 . S
H53 C46 0.929 . S
Cu54 N55 1.999 . S
Cu54 O60 1.974 . S
Cu54 N65 1.985 . S
Cu54 O74 1.959 . S
N55 Cu54 1.999 . S
N55 C57 1.263 . S
N55 C59 1.389 . S
N56 C57 1.358 . S
N56 C58 1.400 . S
C57 N55 1.263 . S
C57 N56 1.358 . S
C57 H63 0.930 1_545 S
C58 N56 1.400 . S
C58 C59 1.351 . S
C58 H75 0.930 . S
C59 N55 1.389 . S
C59 C58 1.351 . S
C59 H64 0.930 . S
O60 Cu54 1.974 . S
O60 C70 1.282 1_545 S
C61 O62 1.261 . S
C61 O74 1.251 1_565 S
O62 C61 1.261 . S
H63 C57 0.930 1_565 S
H64 C59 0.930 . S
N65 Cu54 1.985 . S
N65 C67 1.335 . S
N65 C68 1.390 1_545 S
N66 C67 1.345 . S
N66 C69 1.336 1_545 S
C67 N65 1.335 . S
C67 N66 1.345 . S
C67 H72 0.930 . S
C68 N65 1.390 1_565 S
C68 C69 1.346 . S
C68 H73 0.930 . S
C69 N66 1.336 1_565 S
C69 C68 1.346 . S
C69 H76 0.929 . S
C70 O60 1.282 1_565 S
C70 O71 1.216 . S
O71 C70 1.216 . S
H72 C67 0.930 . S
H73 C68 0.930 . S
O74 Cu54 1.959 . S
O74 C61 1.251 1_545 S
H75 C58 0.930 . S
H76 C69 0.929 . S
H77 C83 0.930 . S
H78 C87 0.930 . S
H79 C92 0.929 . S
H80 C90 0.929 . S
H81 C85 0.929 . S
H82 C91 0.929 . S
C83 H77 0.930 . S
C83 C84 1.367 1_655 S
C83 C91 1.378 . S
C84 C83 1.367 1_455 S
C84 C92 1.433 . S
C85 H81 0.929 . S
C85 C87 1.378 . S
C85 C89 1.350 . S
C86 C89 1.463 . S
C86 C91 1.350 1_455 S
C86 N94 1.427 . S
C87 H78 0.930 . S
C87 C85 1.378 . S
C87 C88 1.367 . S
C88 C87 1.367 . S
C88 C90 1.433 1_455 S
C89 C85 1.350 . S
C89 C86 1.463 . S
C89 N93 1.427 1_455 S
C90 H80 0.929 . S
C90 C88 1.433 1_655 S
C90 N93 1.384 . S
C91 H82 0.929 . S
C91 C83 1.378 . S
C91 C86 1.350 1_655 S
C92 H79 0.929 . S
C92 C84 1.433 . S
C92 N94 1.384 . S
N93 C89 1.427 1_655 S
N93 C90 1.384 . S
N94 C86 1.427 . S
N94 C92 1.384 . S
H95 C101 0.930 . S
H96 C105 0.930 . S
H97 C110 0.929 . S
H98 C108 0.929 . S
H99 C103 0.929 . S
H100 C109 0.929 . S
C101 H95 0.930 . S
C101 C102 1.367 . S
C101 C109 1.378 . S
C102 C101 1.367 . S
C102 C110 1.433 1_545 S
C103 H99 0.929 . S
C103 C105 1.378 . S
C103 C107 1.350 1_565 S
C104 C107 1.463 . S
C104 C109 1.350 . S
C104 N112 1.427 1_545 S
C105 H96 0.930 . S
C105 C103 1.378 . S
C105 C106 1.367 1_565 S
C106 C105 1.367 1_545 S
C106 C108 1.433 . S
C107 C103 1.350 1_545 S
C107 C104 1.463 . S
C107 N111 1.427 . S
C108 H98 0.929 . S
C108 C106 1.433 . S
C108 N111 1.384 . S
C109 H100 0.929 . S
C109 C101 1.378 . S
C109 C104 1.350 . S
C110 H97 0.929 . S
C110 C102 1.433 1_565 S
C110 N112 1.384 . S
N111 C107 1.427 . S
N111 C108 1.384 . S
N112 C104 1.427 1_565 S
N112 C110 1.384 . S
H113 C119 0.930 . S
H114 C123 0.930 . S
H115 C128 0.929 . S
H116 C126 0.929 . S
H117 C121 0.929 . S
H118 C127 0.929 . S
C119 H113 0.930 . S
C119 C120 1.367 1_655 S
C119 C127 1.378 . S
C120 C119 1.367 1_455 S
C120 C128 1.433 . S
C121 H117 0.929 . S
C121 C123 1.378 . S
C121 C125 1.350 1_455 S
C122 C125 1.463 1_455 S
C122 C127 1.351 1_455 S
C122 N130 1.426 . S
C123 H114 0.930 . S
C123 C121 1.378 . S
C123 C124 1.367 1_455 S
C124 C123 1.367 1_655 S
C124 C126 1.433 . S
C125 C121 1.350 1_655 S
C125 C122 1.463 1_655 S
C125 N129 1.427 . S
C126 H116 0.929 . S
C126 C124 1.433 . S
C126 N129 1.384 . S
C127 H118 0.929 . S
C127 C119 1.378 . S
C127 C122 1.351 1_655 S
C128 H115 0.929 . S
C128 C120 1.433 . S
C128 N130 1.384 . S
N129 C125 1.427 . S
N129 C126 1.384 . S
N130 C122 1.426 . S
N130 C128 1.384 . S
H131 C137 0.930 . S
H132 C141 0.930 . S
H133 C146 0.929 . S
H134 C144 0.929 . S
H135 C139 0.929 . S
H136 C145 0.929 . S
C137 H131 0.930 . S
C137 C138 1.367 . S
C137 C145 1.378 . S
C138 C137 1.367 . S
C138 C146 1.433 1_545 S
C139 H135 0.929 . S
C139 C141 1.378 . S
C139 C143 1.350 1_565 S
C140 C143 1.463 . S
C140 C145 1.350 . S
C140 N148 1.427 1_545 S
C141 H132 0.930 . S
C141 C139 1.378 . S
C141 C142 1.367 . S
C142 C141 1.367 . S
C142 C144 1.433 1_565 S
C143 C139 1.350 1_545 S
C143 C140 1.463 . S
C143 N147 1.427 . S
C144 H134 0.929 . S
C144 C142 1.433 1_545 S
C144 N147 1.384 . S
C145 H136 0.929 . S
C145 C137 1.378 . S
C145 C140 1.350 . S
C146 H133 0.929 . S
C146 C138 1.433 1_565 S
C146 N148 1.384 . S
N147 C143 1.427 . S
N147 C144 1.384 . S
N148 C140 1.427 1_565 S
N148 C146 1.384 . S
H149 C155 0.930 . S
H150 C159 0.930 . S
H151 C164 0.929 . S
H152 C162 0.929 . S
H153 C157 0.929 . S
H154 C163 0.929 . S
C155 H149 0.930 . S
C155 C156 1.367 1_455 S
C155 C163 1.378 . S
C156 C155 1.367 1_655 S
C156 C164 1.433 . S
C157 H153 0.929 . S
C157 C159 1.378 . S
C157 C161 1.350 1_655 S
C158 C161 1.463 . S
C158 C163 1.350 . S
C158 N166 1.427 1_455 S
C159 H150 0.930 . S
C159 C157 1.378 . S
C159 C160 1.367 1_655 S
C160 C159 1.367 1_455 S
C160 C162 1.433 . S
C161 C157 1.350 1_455 S
C161 C158 1.463 . S
C161 N165 1.427 . S
C162 H152 0.929 . S
C162 C160 1.433 . S
C162 N165 1.384 . S
C163 H154 0.929 . S
C163 C155 1.378 . S
C163 C158 1.350 . S
C164 H151 0.929 . S
C164 C156 1.433 . S
C164 N166 1.384 . S
N165 C161 1.427 . S
N165 C162 1.384 . S
N166 C158 1.427 1_655 S
N166 C164 1.384 . S
H167 C173 0.930 . S
H168 C177 0.930 . S
H169 C182 0.929 . S
H170 C180 0.929 . S
H171 C175 0.929 . S
H172 C181 0.929 . S
C173 H167 0.930 . S
C173 C174 1.367 1_545 S
C173 C181 1.378 . S
C174 C173 1.367 1_565 S
C174 C182 1.433 . S
C175 H171 0.929 . S
C175 C177 1.378 . S
C175 C179 1.350 1_565 S
C176 C179 1.463 . S
C176 C181 1.350 . S
C176 N184 1.427 1_545 S
C177 H168 0.930 . S
C177 C175 1.378 . S
C177 C178 1.367 1_565 S
C178 C177 1.367 1_545 S
C178 C180 1.433 . S
C179 C175 1.350 1_545 S
C179 C176 1.463 . S
C179 N183 1.427 . S
C180 H170 0.929 . S
C180 C178 1.433 . S
C180 N183 1.384 . S
C181 H172 0.929 . S
C181 C173 1.378 . S
C181 C176 1.350 . S
C182 H169 0.929 . S
C182 C174 1.433 . S
C182 N184 1.384 . S
N183 C179 1.427 . S
N183 C180 1.384 . S
N184 C176 1.427 1_565 S
N184 C182 1.384 . S
H185 C191 0.930 . S
H186 C195 0.930 . S
H187 C200 0.929 . S
H188 C198 0.929 . S
H189 C193 0.929 . S
H190 C199 0.929 . S
C191 H185 0.930 . S
C191 C192 1.367 . S
C191 C199 1.378 . S
C192 C191 1.367 . S
C192 C200 1.433 1_455 S
C193 H189 0.929 . S
C193 C195 1.378 . S
C193 C197 1.350 . S
C194 C197 1.463 . S
C194 C199 1.350 1_655 S
C194 N202 1.427 . S
C195 H186 0.930 . S
C195 C193 1.378 . S
C195 C196 1.367 . S
C196 C195 1.367 . S
C196 C198 1.433 1_655 S
C197 C193 1.350 . S
C197 C194 1.463 . S
C197 N201 1.427 1_655 S
C198 H188 0.929 . S
C198 C196 1.433 1_455 S
C198 N201 1.384 . S
C199 H190 0.929 . S
C199 C191 1.378 . S
C199 C194 1.350 1_455 S
C200 H187 0.929 . S
C200 C192 1.433 1_655 S
C200 N202 1.384 . S
N201 C197 1.427 1_455 S
N201 C198 1.384 . S
N202 C194 1.427 . S
N202 C200 1.384 . S
H203 C209 0.930 . S
H204 C213 0.930 . S
H205 C218 0.929 1_565 S
H206 C216 0.929 . S
H207 C211 0.929 . S
H208 C217 0.929 . S
C209 H203 0.930 . S
C209 C210 1.367 . S
C209 C217 1.378 . S
C210 C209 1.367 . S
C210 C218 1.433 . S
C211 H207 0.929 . S
C211 C213 1.378 . S
C211 C215 1.351 . S
C212 C215 1.462 1_545 S
C212 C217 1.350 . S
C212 N220 1.427 1_545 S
C213 H204 0.930 . S
C213 C211 1.378 . S
C213 C214 1.367 . S
C214 C213 1.367 . S
C214 C216 1.433 1_565 S
C215 C211 1.351 . S
C215 C212 1.462 1_565 S
C215 N219 1.427 1_565 S
C216 H206 0.929 . S
C216 C214 1.433 1_545 S
C216 N219 1.384 . S
C217 H208 0.929 . S
C217 C209 1.378 . S
C217 C212 1.350 . S
C218 H205 0.929 1_545 S
C218 C210 1.433 . S
C218 N220 1.384 1_545 S
N219 C215 1.427 1_545 S
N219 C216 1.384 . S
N220 C212 1.427 1_565 S
N220 C218 1.384 1_565 S
C84 C30 1.379 1_455 S
C88 C47 1.417 . S
C102 C1 1.455 . S
C106 N66 1.452 . S
C120 C0 1.288 1_455 S
C124 N43 1.299 . S
C138 C29 1.621 . S
C142 C70 1.657 . S
C156 C19 1.403 1_655 S
C160 C38 1.480 . S
C174 C20 1.501 . S
C178 N56 1.513 . S
C196 N33 1.330 . S
C192 C10 1.319 . S
C210 C2 1.656 . S
C214 C61 1.689 . S
