# Generated by pormake.
# Topology tsx, (6,3)-cn, num edge types: 1
# Building blocks:
#     Node 0, Type 0, BuildingBlock: CIFDUS_clean_sbu_1, # of connection points: 6
#     Node 1, Type 0, BuildingBlock: CIFDUS_clean_sbu_1, # of connection points: 6
#     Node 2, Type 1, BuildingBlock: OLANEW_clean_sbu_2, # of connection points: 3
#     Node 3, Type 1, BuildingBlock: OLANEW_clean_sbu_2, # of connection points: 3
#     Node 4, Type 1, BuildingBlock: OLANEW_clean_sbu_2, # of connection points: 3
#     Node 5, Type 1, BuildingBlock: OLANEW_clean_sbu_2, # of connection points: 3
#     Edge 6, Type (0, 1), BuildingBlock: OJICUG_clean_linker_0, # of connection points: 2
#     Edge 7, Type (0, 1), BuildingBlock: OJICUG_clean_linker_0, # of connection points: 2
#     Edge 8, Type (0, 1), BuildingBlock: OJICUG_clean_linker_0, # of connection points: 2
#     Edge 9, Type (0, 1), BuildingBlock: OJICUG_clean_linker_0, # of connection points: 2
#     Edge 10, Type (0, 1), BuildingBlock: OJICUG_clean_linker_0, # of connection points: 2
#     Edge 11, Type (0, 1), BuildingBlock: OJICUG_clean_linker_0, # of connection points: 2
#     Edge 12, Type (0, 1), BuildingBlock: OJICUG_clean_linker_0, # of connection points: 2
#     Edge 13, Type (0, 1), BuildingBlock: OJICUG_clean_linker_0, # of connection points: 2
#     Edge 14, Type (0, 1), BuildingBlock: OJICUG_clean_linker_0, # of connection points: 2
#     Edge 15, Type (0, 1), BuildingBlock: OJICUG_clean_linker_0, # of connection points: 2
#     Edge 16, Type (0, 1), BuildingBlock: OJICUG_clean_linker_0, # of connection points: 2
#     Edge 17, Type (0, 1), BuildingBlock: OJICUG_clean_linker_0, # of connection points: 2
# Relax obj value: 0.039
# Max RMSD: 0.095
# Mean RMSD: 0.049
data_MOF--net-tsx--node1-CIFDUS_clean_sbu_1--node2-OLANEW_clean_sbu_2--edge1-OJICUG_clean_linker_0
_symmetry_space_group_name_H-M    P1
_symmetry_Int_Tables_number       1
_symmetry_cell_setting            triclinic
loop_
_symmetry_equiv_pos_as_xyz
'x, y, z'
_cell_length_a     14.283589
_cell_length_b     19.557474
_cell_length_c     26.047048
_cell_angle_alpha  99.379533
_cell_angle_beta   98.800622
_cell_angle_gamma 93.260502
loop_
_atom_site_label
_atom_site_type_symbol
_atom_site_fract_x
_atom_site_fract_y
_atom_site_fract_z
_atom_type_partial_charge
O0 O 1.00266 0.08208 0.00552 0.0
Mn1 Mn 0.0655 -0.01393 -0.00676 0.0
O2 O 0.85045 0.05951 0.96514 0.0
Mn3 Mn 0.86561 -0.02709 0.92949 0.0
O4 O 0.12605 0.89032 0.98022 0.0
O5 O 0.19499 0.03968 0.01117 0.0
Mn6 Mn 0.27109 -0.00435 0.05201 0.0
O7 O 0.06559 -0.02283 0.07286 0.0
O8 O 0.2808 0.90844 0.01526 0.0
O9 O 0.06966 -0.00531 0.91433 0.0
O10 O 0.92119 -0.02847 0.8699 0.0
O11 O 0.34465 0.07112 0.04281 0.0
O12 O 0.21878 -0.0047 0.11238 0.0
C13 C 0.86166 0.88678 0.96943 0.0
C14 C 0.91761 0.10038 -0.00622 0.0
C15 C 0.20938 0.86881 0.98984 0.0
C16 C 0.26713 0.08457 0.01478 0.0
C17 C 0.1308 -0.01742 0.11386 0.0
C18 C 1.00961 -0.01408 0.87125 0.0
O19 O 0.93617 0.9305 0.97448 0.0
O20 O 0.78877 0.89901 0.937 0.0
O21 O 0.51264 0.59104 0.51007 0.0
Mn22 Mn 0.57541 0.49499 0.49877 0.0
O23 O 0.36023 0.56791 0.47 0.0
Mn24 Mn 0.37449 0.48028 0.43579 0.0
O25 O 0.63609 0.39937 0.48662 0.0
O26 O 0.705 0.54836 0.51562 0.0
Mn27 Mn 0.78128 0.50587 0.55763 0.0
O28 O 0.57652 0.48792 0.5787 0.0
O29 O 0.79051 0.41757 0.52245 0.0
O30 O 0.57801 0.50163 0.41936 0.0
O31 O 0.42916 0.47641 0.37573 0.0
O32 O 0.85468 0.58033 0.54652 0.0
O33 O 0.72934 0.50833 0.61841 0.0
C34 C 0.37168 0.39632 0.47796 0.0
C35 C 0.42759 0.60918 0.49807 0.0
C36 C 0.71927 0.37785 0.49684 0.0
C37 C 0.77703 0.5929 0.51813 0.0
C38 C 0.64144 0.49531 0.61996 0.0
C39 C 0.51732 0.49114 0.37645 0.0
O40 O 0.44605 0.43961 0.48149 0.0
O41 O 0.29808 0.40734 0.44549 0.0
O42 O 0.12197 0.95811 0.35803 0.0
Cd43 Cd 0.14566 0.96551 0.45463 0.0
O44 O 0.96708 0.95679 0.33137 0.0
Cd45 Cd 0.92864 -0.01963 0.40956 0.0
O46 O 0.87244 0.07071 0.4512 0.0
C47 C 0.79797 0.09371 0.42894 0.0
O48 O 0.75223 0.05849 0.38395 0.0
C49 C 0.0511 0.95446 0.32106 0.0
C50 C 0.25759 0.86241 0.48873 0.0
O51 O 0.16659 0.8555 0.48226 0.0
O52 O 0.29706 0.91837 0.47908 0.0
O53 O 0.21367 0.0117 0.665 0.0
Cd54 Cd 0.27443 0.01038 0.58166 0.0
O55 O 0.06114 -0.00696 0.62998 0.0
Cd56 Cd 0.05607 0.9671 0.54472 0.0
O57 O 0.96927 0.87553 0.49737 0.0
C58 C 0.88227 0.86609 0.50222 0.0
O59 O 0.84404 0.91614 0.52987 0.0
C60 C 0.12656 0.00523 0.67025 0.0
C61 C 0.31667 0.14356 0.56026 0.0
O62 O 0.23247 0.11295 0.54882 0.0
O63 O 0.38281 0.11139 0.58249 0.0
O64 O 0.62457 0.46345 0.86286 0.0
Cd65 Cd 0.64306 0.46306 0.95848 0.0
O66 O 0.47008 0.45424 0.83256 0.0
Cd67 Cd 0.42371 0.47185 0.90898 0.0
O68 O 0.36232 0.56134 0.94842 0.0
C69 C 0.28987 0.58455 0.92422 0.0
O70 O 0.24812 0.54987 0.87814 0.0
C71 C 0.55567 0.4582 0.82458 0.0
C72 C 0.75152 0.35636 0.98923 0.0
O73 O 0.66043 0.34998 0.98117 0.0
O74 O 0.79278 0.41344 0.98264 0.0
O75 O 0.71686 0.51093 0.16783 0.0
Cd76 Cd 0.78121 0.50523 0.0852 0.0
O77 O 0.56451 0.48644 0.13333 0.0
Cd78 Cd 0.55457 0.45758 0.04788 0.0
O79 O 0.46494 0.36755 -0.0 0.0
C80 C 0.37801 0.3588 0.0052 0.0
O81 O 0.34134 0.40858 0.03404 0.0
C82 C 0.6301 0.5025 0.17335 0.0
C83 C 0.81512 0.63522 0.05635 0.0
O84 O 0.73377 0.60028 0.0438 0.0
O85 O 0.88217 0.60911 0.08345 0.0
C86 C 0.21493 0.20299 0.01271 0.0
C87 C 0.26638 0.14888 -0.00753 0.0
H88 H 0.20929 0.31325 0.03188 0.0
C89 C 0.34116 0.16417 0.96581 0.0
H90 H 0.15863 0.19254 0.0346 0.0
C91 C 0.37152 0.23305 0.9649 0.0
C92 C 0.32794 0.28795 0.99109 0.0
H93 H 0.38252 0.12315 0.9504 0.0
H94 H 0.43448 0.24316 0.94791 0.0
C95 C 0.24521 0.27222 0.01179 0.0
C96 C 0.304 0.76737 8e-05 0.0
C97 C 0.22438 0.79451 0.97417 0.0
H98 H 0.38569 0.68014 0.00554 0.0
C99 C 0.16165 0.75018 0.93414 0.0
H100 H 0.35298 0.79961 0.03183 0.0
C101 C 0.18104 0.68097 0.91873 0.0
C102 C 0.26252 0.65479 0.94375 0.0
H103 H 0.09928 0.76941 0.91383 0.0
H104 H 0.13324 0.64843 0.88662 0.0
C105 C 0.32248 0.69845 0.98531 0.0
C106 C 0.7635 0.79204 -0.0069 0.0
C107 C 0.8542 0.82638 -0.00315 0.0
H108 H 0.68054 0.70628 0.00879 0.0
C109 C 0.93307 0.79979 0.02379 0.0
H110 H 0.70063 0.81132 0.97334 0.0
C111 C 0.92112 0.73823 0.04451 0.0
C112 C 0.83015 0.70282 0.03864 0.0
H113 H 1.00367 0.82523 0.02766 0.0
H114 H 0.98308 0.71758 0.06394 0.0
C115 C 0.75168 0.73139 0.01355 0.0
C116 C 0.94213 0.22856 -0.00528 0.0
C117 C 0.8931 0.17238 0.00935 0.0
H118 H 0.93559 0.33195 0.97702 0.0
C119 C 0.80432 0.18181 0.02524 0.0
H120 H 1.00931 0.22211 0.98088 0.0
C121 C 0.76115 0.24347 0.02175 0.0
C122 C 0.80606 0.29753 0.00264 0.0
H123 H 0.76467 0.13915 0.03632 0.0
H124 H 0.69017 0.24721 0.03126 0.0
C125 C 0.89909 0.29101 0.99173 0.0
C126 C 0.85129 0.67088 0.468 0.0
C127 C 0.7759 0.65605 0.49436 0.0
H128 H 0.94333 0.74948 0.44867 0.0
C129 C 0.72235 0.71002 0.51253 0.0
H130 H 0.89419 0.62998 0.45414 0.0
C131 C 0.75098 0.77899 0.5099 0.0
C132 C 0.83412 0.79463 0.48953 0.0
H133 H 0.66552 0.69999 0.53417 0.0
H134 H 0.71336 0.82018 0.52845 0.0
C135 C 0.87997 0.7395 0.46535 0.0
C136 C 0.81594 0.27677 0.50497 0.0
C137 C 0.73436 0.3036 0.48084 0.0
H138 H 0.89877 0.18974 0.50839 0.0
C139 C 0.66955 0.25903 0.44203 0.0
H140 H 0.86672 0.3092 0.5357 0.0
C141 C 0.68848 0.18989 0.42609 0.0
C142 C 0.77176 0.16398 0.44926 0.0
H143 H 0.60567 0.27797 0.42308 0.0
H144 H 0.63881 0.15717 0.39497 0.0
C145 C 0.83411 0.20787 0.48961 0.0
C146 C 0.27289 0.31226 0.51229 0.0
C147 C 0.36445 0.33817 0.50754 0.0
H148 H 0.18659 0.23167 0.53268 0.0
C149 C 0.44284 0.30327 0.52573 0.0
H150 H 0.21088 0.33844 0.4995 0.0
C151 C 0.42856 0.24093 0.54508 0.0
C152 C 0.33579 0.21308 0.54643 0.0
H153 H 0.51412 0.32199 0.52268 0.0
H154 H 0.48953 0.21318 0.55682 0.0
C155 C 0.25874 0.25073 0.53131 0.0
C156 C 0.45023 0.73643 0.49557 0.0
C157 C 0.40326 0.68138 0.51268 0.0
H158 H 0.44078 0.83801 0.47473 0.0
C159 C 0.31564 0.69146 0.52983 0.0
H160 H 0.51637 0.72936 0.48068 0.0
C161 C 0.27134 0.75243 0.52518 0.0
C162 C 0.31391 0.80509 0.50357 0.0
H163 H 0.27753 0.6496 0.54274 0.0
H164 H 0.2011 0.75653 0.53569 0.0
C165 C 0.40606 0.79818 0.49138 0.0
C166 C 0.18011 0.96271 0.20593 0.0
C167 C 0.10647 -0.02886 0.16539 0.0
H168 H 0.22037 0.94961 0.28572 0.0
C169 C 1.01245 -0.03165 0.17524 0.0
H170 H 0.25342 0.96317 0.19977 0.0
C171 C 0.9934 0.96032 0.22536 0.0
C172 C 0.06802 0.95447 0.26627 0.0
H173 H 0.95407 -0.02606 0.14477 0.0
H174 H 0.92062 0.96053 0.23238 0.0
C175 C 0.16118 0.9544 0.25547 0.0
C176 C 0.13921 0.00356 0.81729 0.0
C177 C 0.04214 -0.00583 0.82094 0.0
H178 H 0.2427 0.01482 0.76677 0.0
C179 C 0.9744 -0.00721 0.77545 0.0
H180 H 0.19325 0.00536 0.85165 0.0
C181 C 1.00244 -0.00121 0.7274 0.0
C182 C 0.09921 0.00609 0.72308 0.0
H183 H 0.89896 -0.01349 0.77662 0.0
H184 H 0.94759 -0.00363 0.69331 0.0
C185 C 0.16751 0.00932 0.76873 0.0
C186 C 0.52233 0.4703 0.67849 0.0
C187 C 0.61667 0.48504 0.67167 0.0
H188 H 0.42864 0.44966 0.73219 0.0
C189 C 0.69 0.48762 0.71495 0.0
H190 H 0.46426 0.46725 0.64594 0.0
C191 C 0.66997 0.47668 0.76375 0.0
C192 C 0.57589 0.46325 0.77108 0.0
H193 H 0.76381 0.49818 0.71143 0.0
H194 H 0.72864 0.48004 0.79602 0.0
C195 C 0.5021 0.45976 0.72783 0.0
C196 C 0.4802 0.49325 0.27996 0.0
C197 C 0.54872 0.49756 0.32554 0.0
H198 H 0.45181 0.49264 0.19724 0.0
C199 C 0.64541 0.50799 0.32138 0.0
H200 H 0.40499 0.48608 0.28148 0.0
C201 C 0.67266 0.51187 0.27228 0.0
C202 C 0.60364 0.50561 0.22657 0.0
H203 H 0.70001 0.51206 0.35578 0.0
H204 H 0.74762 0.5182 0.26996 0.0
C205 C 0.50718 0.49733 0.23136 0.0
loop_
_geom_bond_atom_site_label_1
_geom_bond_atom_site_label_2
_geom_bond_distance
_geom_bond_site_symmetry_2
_ccdc_geom_bond_type
O0 Mn1 2.163 1_654 S
O0 C14 1.244 1_554 S
Mn1 O0 2.163 1_456 S
Mn1 O4 2.160 1_545 S
Mn1 O5 2.221 1_556 S
Mn1 O7 2.163 1_556 S
Mn1 O9 2.160 . S
Mn1 O19 2.221 1_445 S
O2 Mn3 2.087 1_545 S
O2 C14 1.256 . S
Mn3 O2 2.087 1_565 S
Mn3 O10 2.089 1_565 S
Mn3 O19 2.290 . S
Mn3 O20 2.251 . S
O4 Mn1 2.160 1_565 S
O4 C15 1.239 1_556 S
O5 Mn1 2.221 1_554 S
O5 Mn6 2.290 . S
O5 C16 1.278 . S
Mn6 O5 2.290 . S
Mn6 O8 2.089 1_545 S
Mn6 O11 2.251 . S
Mn6 O12 2.087 . S
O7 Mn1 2.163 1_554 S
O7 C17 1.244 . S
O8 Mn6 2.089 1_565 S
O8 C15 1.256 . S
O9 Mn1 2.160 . S
O9 C18 1.239 . S
O10 Mn3 2.089 1_545 S
O10 C18 1.256 1_655 S
O11 Mn6 2.251 . S
O11 C16 1.241 . S
O12 Mn6 2.087 . S
O12 C17 1.256 . S
C13 O19 1.278 . S
C13 O20 1.241 . S
C14 O0 1.244 1_556 S
C14 O2 1.256 . S
C15 O4 1.239 1_554 S
C15 O8 1.256 . S
C16 O5 1.278 . S
C16 O11 1.241 . S
C17 O7 1.244 . S
C17 O12 1.256 . S
C18 O9 1.239 . S
C18 O10 1.256 1_455 S
O19 Mn1 2.221 1_665 S
O19 Mn3 2.290 . S
O19 C13 1.278 . S
O20 Mn3 2.251 . S
O20 C13 1.241 . S
O21 Mn22 2.163 . S
O21 C35 1.244 . S
Mn22 O21 2.163 . S
Mn22 O25 2.160 . S
Mn22 O26 2.221 . S
Mn22 O28 2.163 . S
Mn22 O30 2.160 . S
Mn22 O40 2.221 . S
O23 Mn24 2.087 . S
O23 C35 1.256 . S
Mn24 O23 2.087 . S
Mn24 O31 2.089 . S
Mn24 O40 2.290 . S
Mn24 O41 2.251 . S
O25 Mn22 2.160 . S
O25 C36 1.239 . S
O26 Mn22 2.221 . S
O26 Mn27 2.290 . S
O26 C37 1.278 . S
Mn27 O26 2.290 . S
Mn27 O29 2.089 . S
Mn27 O32 2.251 . S
Mn27 O33 2.087 . S
O28 Mn22 2.163 . S
O28 C38 1.244 . S
O29 Mn27 2.089 . S
O29 C36 1.256 . S
O30 Mn22 2.160 . S
O30 C39 1.239 . S
O31 Mn24 2.089 . S
O31 C39 1.256 . S
O32 Mn27 2.251 . S
O32 C37 1.241 . S
O33 Mn27 2.087 . S
O33 C38 1.256 . S
C34 O40 1.278 . S
C34 O41 1.241 . S
C35 O21 1.244 . S
C35 O23 1.256 . S
C36 O25 1.239 . S
C36 O29 1.256 . S
C37 O26 1.278 . S
C37 O32 1.241 . S
C38 O28 1.244 . S
C38 O33 1.256 . S
C39 O30 1.239 . S
C39 O31 1.256 . S
O40 Mn22 2.221 . S
O40 Mn24 2.290 . S
O40 C34 1.278 . S
O41 Mn24 2.251 . S
O41 C34 1.241 . S
O42 Cd43 2.300 . S
O42 C49 1.275 1_565 S
Cd43 O42 2.300 . S
Cd43 O51 2.381 . S
Cd43 O52 2.378 . S
O44 Cd45 2.385 . S
O44 C49 1.255 . S
Cd45 O44 2.385 . S
Cd45 O46 2.317 1_455 S
O46 Cd45 2.317 1_655 S
O46 C47 1.232 . S
C47 O46 1.232 . S
C47 O48 1.218 . S
O48 C47 1.218 . S
C49 O42 1.275 1_545 S
C49 O44 1.255 . S
C50 O51 1.258 . S
C50 O52 1.256 . S
O51 Cd43 2.381 . S
O51 C50 1.258 . S
O52 Cd43 2.378 . S
O52 C50 1.256 . S
O53 Cd54 2.300 . S
O53 C60 1.275 . S
Cd54 O53 2.300 . S
Cd54 O62 2.381 . S
Cd54 O63 2.378 . S
O55 Cd56 2.385 . S
O55 C60 1.255 1_565 S
Cd56 O55 2.385 . S
Cd56 O57 2.317 1_455 S
O57 Cd56 2.317 1_655 S
O57 C58 1.232 . S
C58 O57 1.232 . S
C58 O59 1.218 . S
O59 C58 1.218 . S
C60 O53 1.275 . S
C60 O55 1.255 1_545 S
C61 O62 1.258 . S
C61 O63 1.256 . S
O62 Cd54 2.381 . S
O62 C61 1.258 . S
O63 Cd54 2.378 . S
O63 C61 1.256 . S
O64 Cd65 2.300 . S
O64 C71 1.275 . S
Cd65 O64 2.300 . S
Cd65 O73 2.381 . S
Cd65 O74 2.378 1_556 S
O66 Cd67 2.385 . S
O66 C71 1.255 . S
Cd67 O66 2.385 . S
Cd67 O68 2.317 . S
O68 Cd67 2.317 . S
O68 C69 1.232 . S
C69 O68 1.232 . S
C69 O70 1.218 . S
O70 C69 1.218 . S
C71 O64 1.275 . S
C71 O66 1.255 . S
C72 O73 1.258 . S
C72 O74 1.256 1_556 S
O73 Cd65 2.381 . S
O73 C72 1.258 . S
O74 Cd65 2.378 1_554 S
O74 C72 1.256 1_554 S
O75 Cd76 2.300 . S
O75 C82 1.275 . S
Cd76 O75 2.300 . S
Cd76 O84 2.381 . S
Cd76 O85 2.378 . S
O77 Cd78 2.385 . S
O77 C82 1.255 . S
Cd78 O77 2.385 . S
Cd78 O79 2.317 . S
O79 Cd78 2.317 . S
O79 C80 1.232 . S
C80 O79 1.232 . S
C80 O81 1.218 . S
O81 C80 1.218 . S
C82 O75 1.275 . S
C82 O77 1.255 . S
C83 O84 1.258 . S
C83 O85 1.256 . S
O84 Cd76 2.381 . S
O84 C83 1.258 . S
O85 Cd76 2.378 . S
O85 C83 1.256 . S
C86 C87 1.387 . S
C86 H90 0.950 . S
C86 C95 1.390 . S
C87 C86 1.387 . S
C87 C89 1.387 1_554 S
H88 C95 0.950 . S
C89 C87 1.387 1_556 S
C89 C91 1.390 . S
C89 H93 0.950 . S
H90 C86 0.950 . S
C91 C89 1.390 . S
C91 C92 1.387 1_556 S
C91 H94 0.950 . S
C92 C91 1.387 1_554 S
C92 C95 1.387 . S
H93 C89 0.950 . S
H94 C91 0.950 . S
C95 C86 1.390 . S
C95 H88 0.950 . S
C95 C92 1.387 . S
C96 C97 1.387 1_554 S
C96 H100 0.950 . S
C96 C105 1.390 . S
C97 C96 1.387 1_556 S
C97 C99 1.387 . S
H98 C105 0.950 . S
C99 C97 1.387 . S
C99 C101 1.390 . S
C99 H103 0.950 . S
H100 C96 0.950 . S
C101 C99 1.390 . S
C101 C102 1.387 . S
C101 H104 0.950 . S
C102 C101 1.387 . S
C102 C105 1.387 1_556 S
H103 C99 0.950 . S
H104 C101 0.950 . S
C105 C96 1.390 . S
C105 H98 0.950 . S
C105 C102 1.387 1_554 S
C106 C107 1.387 . S
C106 H110 0.950 . S
C106 C115 1.390 . S
C107 C106 1.387 . S
C107 C109 1.387 1_554 S
H108 C115 0.950 . S
C109 C107 1.387 1_556 S
C109 C111 1.390 . S
C109 H113 0.950 . S
H110 C106 0.950 . S
C111 C109 1.390 . S
C111 C112 1.387 1_556 S
C111 H114 0.950 . S
C112 C111 1.387 1_554 S
C112 C115 1.387 . S
H113 C109 0.950 . S
H114 C111 0.950 . S
C115 C106 1.390 . S
C115 H108 0.950 . S
C115 C112 1.387 . S
C116 C117 1.403 . S
C116 H120 0.950 . S
C116 C125 1.390 . S
C117 C116 1.403 . S
C117 C119 1.376 1_556 S
H118 C125 0.950 . S
C119 C117 1.376 1_554 S
C119 C121 1.390 . S
C119 H123 0.950 . S
H120 C116 0.950 . S
C121 C119 1.390 . S
C121 C122 1.387 1_554 S
C121 H124 0.950 . S
C122 C121 1.387 1_556 S
C122 C125 1.387 . S
H123 C119 0.950 . S
H124 C121 0.950 . S
C125 C116 1.390 . S
C125 H118 0.950 . S
C125 C122 1.387 . S
C126 C127 1.387 . S
C126 H130 0.950 . S
C126 C135 1.390 . S
C127 C126 1.387 . S
C127 C129 1.387 . S
H128 C135 0.950 . S
C129 C127 1.387 . S
C129 C131 1.390 . S
C129 H133 0.950 . S
H130 C126 0.950 . S
C131 C129 1.390 . S
C131 C132 1.387 . S
C131 H134 0.950 . S
C132 C131 1.387 . S
C132 C135 1.387 . S
H133 C129 0.950 . S
H134 C131 0.950 . S
C135 C126 1.390 . S
C135 H128 0.950 . S
C135 C132 1.387 . S
C136 C137 1.387 . S
C136 H140 0.950 . S
C136 C145 1.390 . S
C137 C136 1.387 . S
C137 C139 1.387 . S
H138 C145 0.950 . S
C139 C137 1.387 . S
C139 C141 1.390 . S
C139 H143 0.950 . S
H140 C136 0.950 . S
C141 C139 1.390 . S
C141 C142 1.387 . S
C141 H144 0.950 . S
C142 C141 1.387 . S
C142 C145 1.387 . S
H143 C139 0.950 . S
H144 C141 0.950 . S
C145 C136 1.390 . S
C145 H138 0.950 . S
C145 C142 1.387 . S
C146 C147 1.387 . S
C146 H150 0.950 . S
C146 C155 1.390 . S
C147 C146 1.387 . S
C147 C149 1.387 . S
H148 C155 0.950 . S
C149 C147 1.387 . S
C149 C151 1.390 . S
C149 H153 0.950 . S
H150 C146 0.950 . S
C151 C149 1.390 . S
C151 C152 1.387 . S
C151 H154 0.950 . S
C152 C151 1.387 . S
C152 C155 1.387 . S
H153 C149 0.950 . S
H154 C151 0.950 . S
C155 C146 1.390 . S
C155 H148 0.950 . S
C155 C152 1.387 . S
C156 C157 1.387 . S
C156 H160 0.950 . S
C156 C165 1.390 . S
C157 C156 1.387 . S
C157 C159 1.387 . S
H158 C165 0.950 . S
C159 C157 1.387 . S
C159 C161 1.390 . S
C159 H163 0.950 . S
H160 C156 0.950 . S
C161 C159 1.390 . S
C161 C162 1.387 . S
C161 H164 0.950 . S
C162 C161 1.387 . S
C162 C165 1.387 . S
H163 C159 0.950 . S
H164 C161 0.950 . S
C165 C156 1.390 . S
C165 H158 0.950 . S
C165 C162 1.387 . S
C166 C167 1.387 1_665 S
C166 H170 0.950 . S
C166 C175 1.390 . S
C167 C166 1.387 1_445 S
C167 C169 1.387 . S
H168 C175 0.950 . S
C169 C167 1.387 . S
C169 C171 1.390 . S
C169 H173 0.950 . S
H170 C166 0.950 . S
C171 C169 1.390 . S
C171 C172 1.387 . S
C171 H174 0.950 . S
C172 C171 1.387 . S
C172 C175 1.387 1_445 S
H173 C169 0.950 . S
H174 C171 0.950 . S
C175 C166 1.390 . S
C175 H168 0.950 . S
C175 C172 1.387 1_665 S
C176 C177 1.387 . S
C176 H180 0.950 . S
C176 C185 1.390 . S
C177 C176 1.387 . S
C177 C179 1.387 1_445 S
H178 C185 0.950 . S
C179 C177 1.387 1_665 S
C179 C181 1.390 . S
C179 H183 0.950 . S
H180 C176 0.950 . S
C181 C179 1.390 . S
C181 C182 1.387 1_665 S
C181 H184 0.950 . S
C182 C181 1.387 1_445 S
C182 C185 1.387 . S
H183 C179 0.950 . S
H184 C181 0.950 . S
C185 C176 1.390 . S
C185 H178 0.950 . S
C185 C182 1.387 . S
C186 C187 1.387 . S
C186 H190 0.950 . S
C186 C195 1.390 . S
C187 C186 1.387 . S
C187 C189 1.387 . S
H188 C195 0.950 . S
C189 C187 1.387 . S
C189 C191 1.390 . S
C189 H193 0.950 . S
H190 C186 0.950 . S
C191 C189 1.390 . S
C191 C192 1.387 . S
C191 H194 0.950 . S
C192 C191 1.387 . S
C192 C195 1.387 . S
H193 C189 0.950 . S
H194 C191 0.950 . S
C195 C186 1.390 . S
C195 H188 0.950 . S
C195 C192 1.387 . S
C196 C197 1.387 . S
C196 H200 0.950 . S
C196 C205 1.390 . S
C197 C196 1.387 . S
C197 C199 1.387 . S
H198 C205 0.950 . S
C199 C197 1.387 . S
C199 C201 1.390 . S
C199 H203 0.950 . S
H200 C196 0.950 . S
C201 C199 1.390 . S
C201 C202 1.387 . S
C201 H204 0.950 . S
C202 C201 1.387 . S
C202 C205 1.387 . S
H203 C199 0.950 . S
H204 C201 0.950 . S
C205 C196 1.390 . S
C205 H198 0.950 . S
C205 C202 1.387 . S
C92 C80 1.199 . S
C87 C16 1.319 . S
C97 C15 1.487 1_556 S
C102 C69 1.275 . S
C107 C13 1.291 1_554 S
C112 C83 1.452 . S
C117 C14 1.401 . S
C122 C72 1.424 . S
C127 C37 1.316 . S
C132 C58 1.205 . S
C137 C36 1.487 . S
C142 C47 1.275 . S
C152 C61 1.452 . S
C147 C34 1.291 . S
C162 C50 1.424 . S
C157 C35 1.404 . S
C167 C17 1.517 . S
C172 C49 1.505 . S
C177 C18 1.387 . S
C182 C60 1.380 . S
C192 C71 1.507 . S
C187 C38 1.516 . S
C197 C39 1.389 . S
C202 C82 1.383 . S
