# Generated by pormake.
# Topology pth, (4,4)-cn, num edge types: 1
# Building blocks:
#     Node 0, Type 0, BuildingBlock: CEKHIL_clean_sbu_0, # of connection points: 4
#     Node 1, Type 0, BuildingBlock: CEKHIL_clean_sbu_0, # of connection points: 4
#     Node 2, Type 0, BuildingBlock: CEKHIL_clean_sbu_0, # of connection points: 4
#     Node 3, Type 1, BuildingBlock: NAWXER_clean_sbu_0, # of connection points: 4
#     Node 4, Type 1, BuildingBlock: NAWXER_clean_sbu_0, # of connection points: 4
#     Node 5, Type 1, BuildingBlock: NAWXER_clean_sbu_0, # of connection points: 4
#     Edge 6, Type (0, 1), None
#     Edge 7, Type (0, 1), None
#     Edge 8, Type (0, 1), None
#     Edge 9, Type (0, 1), None
#     Edge 10, Type (0, 1), None
#     Edge 11, Type (0, 1), None
#     Edge 12, Type (0, 1), None
#     Edge 13, Type (0, 1), None
#     Edge 14, Type (0, 1), None
#     Edge 15, Type (0, 1), None
#     Edge 16, Type (0, 1), None
#     Edge 17, Type (0, 1), None
# Relax obj value: 0.003
# Max RMSD: 0.042
# Mean RMSD: 0.025
data_MOF--net-pth--node1-CEKHIL_clean_sbu_0--node2-NAWXER_clean_sbu_0--edge1-none
_symmetry_space_group_name_H-M    P1
_symmetry_Int_Tables_number       1
_symmetry_cell_setting            triclinic
loop_
_symmetry_equiv_pos_as_xyz
'x, y, z'
_cell_length_a     9.6807297
_cell_length_b     9.6453763
_cell_length_c     25.045884
_cell_angle_alpha  91.119427
_cell_angle_beta   90.709188
_cell_angle_gamma 117.59201
loop_
_atom_site_label
_atom_site_type_symbol
_atom_site_fract_x
_atom_site_fract_y
_atom_site_fract_z
_atom_type_partial_charge
Co0 Co 0.10135 0.06377 0.10821 0.0
O1 O 0.97543 0.92054 0.16248 0.0
O2 O 0.1363 0.88122 0.11031 0.0
C3 C 0.19272 0.29025 0.15871 0.0
O4 O 0.25357 0.18855 0.04968 0.0
Co5 Co 0.99433 0.30801 0.07275 0.0
O6 O 0.20929 0.39723 0.04485 0.0
C7 C 0.80866 0.98539 0.03678 0.0
C8 C 0.03624 0.83109 0.14858 0.0
C9 C 0.29056 0.32731 0.03374 0.0
O10 O 0.91941 0.95658 0.05427 0.0
O11 O 0.80815 0.11641 0.04455 0.0
O12 O 0.26135 0.20252 0.16287 0.0
O13 O 0.06574 0.22756 0.13044 0.0
Co14 Co 0.1089 0.07868 0.41118 0.0
O15 O 1.00471 0.12329 0.35379 0.0
O16 O 0.18398 0.30464 0.4065 0.0
C17 C 0.17063 0.91461 0.36424 0.0
O18 O 0.22084 0.03678 0.4751 0.0
Co19 Co 0.90912 0.74169 0.4418 0.0
O20 O 0.09092 0.77376 0.48662 0.0
C21 C 0.8246 0.98167 0.48002 0.0
C22 C 0.07909 0.26775 0.36793 0.0
C23 C 0.20337 0.90841 0.49765 0.0
O24 O 0.9496 0.08266 0.46025 0.0
O25 O 0.77855 0.83438 0.47392 0.0
O26 O 0.26124 0.06313 0.36414 0.0
O27 O 0.03483 0.87367 0.38506 0.0
Co28 Co 0.11832 0.10311 0.74711 0.0
O29 O 0.25921 0.22526 0.69121 0.0
O30 O 0.2982 0.06625 0.74403 0.0
C31 C 0.88955 1.00771 0.69926 0.0
O32 O 0.99735 0.95186 0.80637 0.0
Co33 Co 0.87854 0.20928 0.78627 0.0
O34 O 0.78701 0.99148 0.81215 0.0
C35 C 0.20066 0.39447 0.82131 0.0
C36 C 0.34694 0.16249 0.70468 0.0
C37 C 0.85812 0.911 0.82223 0.0
O38 O 0.22933 0.28642 0.80057 0.0
O39 O 0.06884 0.39373 0.81638 0.0
O40 O 0.97781 0.93989 0.6944 0.0
O41 O 0.95296 0.13873 0.72593 0.0
C42 C 0.19706 0.80915 0.32806 0.0
C43 C 0.21821 0.42214 0.19513 0.0
O44 O 0.3304 0.8352 0.31016 0.0
Zn45 Zn 0.26547 0.65065 0.259 0.0
O46 O 0.07466 0.69462 0.30998 0.0
Zn47 Zn 0.99337 0.51497 0.25824 0.0
O48 O 0.92991 0.35186 0.31251 0.0
O49 O 0.18669 0.48735 0.31659 0.0
O50 O 0.09313 0.41999 0.21027 0.0
O51 O 0.34975 0.53168 0.2122 0.0
O52 O 0.1614 0.72617 0.20175 0.0
O53 O 0.90445 0.60656 0.20492 0.0
C54 C 0.06163 0.38034 0.33417 0.0
C55 C 1.03015 0.70887 0.18442 0.0
C56 C 0.75017 0.96945 0.66558 0.0
C57 C 0.31934 0.91567 0.53753 0.0
O58 O 0.63639 0.83201 0.65752 0.0
Zn59 Zn 0.50342 0.88724 0.60807 0.0
O60 O 0.74861 0.08574 0.6433 0.0
Zn61 Zn 0.63514 0.15574 0.58963 0.0
O62 O 0.55348 0.26906 0.63908 0.0
O63 O 0.44401 0.01887 0.65802 0.0
O64 O 0.43586 0.04776 0.54604 0.0
O65 O 0.30836 0.79603 0.5625 0.0
O66 O 0.64493 0.92978 0.54637 0.0
O67 O 0.77744 0.17895 0.52783 0.0
C68 C 0.46086 0.15551 0.66746 0.0
C69 C 0.74301 0.03517 0.51803 0.0
C70 C 0.41722 0.41457 0.99593 0.0
C71 C 0.77314 0.78187 0.8594 0.0
O72 O 0.40942 0.53179 0.97761 0.0
Zn73 Zn 0.48255 0.71162 0.92969 0.0
O74 O 0.52423 0.38236 0.9793 0.0
Zn75 Zn 0.62391 0.56805 0.92692 0.0
O76 O 0.70971 0.75603 0.98273 0.0
O77 O 0.57269 0.887 0.98244 0.0
O78 O 0.80501 0.67229 0.87332 0.0
O79 O 0.65794 0.78906 0.87977 0.0
O80 O 0.30321 0.62649 0.8788 0.0
O81 O 0.43241 0.48818 0.87307 0.0
C82 C 0.68758 0.86893 1.00049 0.0
C83 C 0.31922 0.51257 0.85796 0.0
loop_
_geom_bond_atom_site_label_1
_geom_bond_atom_site_label_2
_geom_bond_distance
_geom_bond_site_symmetry_2
_ccdc_geom_bond_type
Co0 O1 2.216 1_445 S
Co0 O2 2.091 1_545 S
Co0 O4 2.004 . S
Co0 O10 2.021 1_445 S
Co0 O12 2.137 . S
Co0 O13 2.244 1_455 S
O1 Co0 2.216 1_665 S
O1 C8 1.247 1_655 S
O2 Co0 2.091 1_565 S
O2 C8 1.261 . S
C3 O12 1.247 . S
C3 O13 1.272 1_455 S
O4 Co0 2.004 . S
O4 C9 1.259 . S
Co5 O6 2.061 1_654 S
Co5 O11 2.052 . S
Co5 O13 2.135 . S
O6 Co5 2.061 1_456 S
O6 C9 1.235 1_556 S
C7 O10 1.238 . S
C7 O11 1.241 1_565 S
C8 O1 1.247 1_455 S
C8 O2 1.261 . S
C9 O4 1.259 . S
C9 O6 1.235 1_554 S
O10 Co0 2.021 1_665 S
O10 C7 1.238 . S
O11 Co5 2.052 . S
O11 C7 1.241 1_545 S
O12 Co0 2.137 . S
O12 C3 1.247 . S
O13 Co0 2.244 1_655 S
O13 C3 1.272 1_655 S
O13 Co5 2.135 . S
Co14 O15 2.216 1_455 S
Co14 O16 2.091 . S
Co14 O18 2.004 . S
Co14 O24 2.021 1_455 S
Co14 O26 2.137 . S
Co14 O27 2.244 1_445 S
O15 Co14 2.216 1_655 S
O15 C22 1.247 1_655 S
O16 Co14 2.091 . S
O16 C22 1.261 . S
C17 O26 1.247 1_565 S
C17 O27 1.272 1_455 S
O18 Co14 2.004 . S
O18 C23 1.259 . S
Co19 O20 2.061 1_655 S
Co19 O25 2.052 . S
Co19 O27 2.135 . S
O20 Co19 2.061 1_455 S
O20 C23 1.235 1_565 S
C21 O24 1.238 . S
C21 O25 1.241 1_545 S
C22 O15 1.247 1_455 S
C22 O16 1.261 . S
C23 O18 1.259 . S
C23 O20 1.235 1_545 S
O24 Co14 2.021 1_655 S
O24 C21 1.238 . S
O25 Co19 2.052 . S
O25 C21 1.241 1_565 S
O26 Co14 2.137 . S
O26 C17 1.247 1_545 S
O27 Co14 2.244 1_665 S
O27 C17 1.272 1_655 S
O27 Co19 2.135 . S
Co28 O29 2.216 . S
Co28 O30 2.091 1_545 S
Co28 O32 2.004 1_445 S
Co28 O38 2.021 . S
Co28 O40 2.137 1_445 S
Co28 O41 2.244 1_455 S
O29 Co28 2.216 . S
O29 C36 1.247 . S
O30 Co28 2.091 1_565 S
O30 C36 1.261 1_565 S
C31 O40 1.247 1_545 S
C31 O41 1.272 . S
O32 Co28 2.004 1_665 S
O32 C37 1.259 . S
Co33 O34 2.061 1_545 S
Co33 O39 2.052 1_655 S
Co33 O41 2.135 . S
O34 Co33 2.061 1_565 S
O34 C37 1.235 . S
C35 O38 1.238 . S
C35 O39 1.241 . S
C36 O29 1.247 . S
C36 O30 1.261 1_545 S
C37 O32 1.259 . S
C37 O34 1.235 . S
O38 Co28 2.021 . S
O38 C35 1.238 . S
O39 Co33 2.052 1_455 S
O39 C35 1.241 . S
O40 Co28 2.137 1_665 S
O40 C31 1.247 1_565 S
O41 Co28 2.244 1_655 S
O41 C31 1.272 . S
O41 Co33 2.135 . S
C42 O44 1.247 . S
C42 O46 1.258 1_455 S
C43 O50 1.247 1_455 S
C43 O51 1.258 . S
O44 C42 1.247 . S
O44 Zn45 2.028 . S
Zn45 O44 2.028 . S
Zn45 O49 2.035 . S
Zn45 O51 2.035 . S
Zn45 O52 2.028 . S
O46 C42 1.258 1_655 S
O46 Zn47 2.035 . S
Zn47 O46 2.035 . S
Zn47 O48 2.028 . S
Zn47 O50 2.028 . S
Zn47 O53 2.035 . S
O48 Zn47 2.028 . S
O48 C54 1.247 1_655 S
O49 Zn45 2.035 . S
O49 C54 1.258 . S
O50 C43 1.247 1_655 S
O50 Zn47 2.028 . S
O51 C43 1.258 . S
O51 Zn45 2.035 . S
O52 Zn45 2.028 . S
O52 C55 1.247 . S
O53 Zn47 2.035 . S
O53 C55 1.258 1_655 S
C54 O48 1.247 1_455 S
C54 O49 1.258 . S
C55 O52 1.247 . S
C55 O53 1.258 1_455 S
C56 O58 1.247 1_545 S
C56 O60 1.258 . S
C57 O64 1.247 . S
C57 O65 1.258 1_545 S
O58 C56 1.247 1_565 S
O58 Zn59 2.028 . S
Zn59 O58 2.028 . S
Zn59 O63 2.035 . S
Zn59 O65 2.035 . S
Zn59 O66 2.028 . S
O60 C56 1.258 . S
O60 Zn61 2.035 . S
Zn61 O60 2.035 . S
Zn61 O62 2.028 . S
Zn61 O64 2.028 . S
Zn61 O67 2.035 . S
O62 Zn61 2.028 . S
O62 C68 1.247 . S
O63 Zn59 2.035 . S
O63 C68 1.258 1_565 S
O64 C57 1.247 . S
O64 Zn61 2.028 . S
O65 C57 1.258 1_565 S
O65 Zn59 2.035 . S
O66 Zn59 2.028 . S
O66 C69 1.247 1_565 S
O67 Zn61 2.035 . S
O67 C69 1.258 . S
C68 O62 1.247 . S
C68 O63 1.258 1_545 S
C69 O66 1.247 1_545 S
C69 O67 1.258 . S
C70 O72 1.247 . S
C70 O74 1.258 . S
C71 O78 1.247 . S
C71 O79 1.258 . S
O72 C70 1.247 . S
O72 Zn73 2.028 . S
Zn73 O72 2.028 . S
Zn73 O77 2.035 . S
Zn73 O79 2.035 . S
Zn73 O80 2.028 . S
O74 C70 1.258 . S
O74 Zn75 2.035 . S
Zn75 O74 2.035 . S
Zn75 O76 2.028 . S
Zn75 O78 2.028 . S
Zn75 O81 2.035 . S
O76 Zn75 2.028 . S
O76 C82 1.247 . S
O77 Zn73 2.035 . S
O77 C82 1.258 . S
O78 C71 1.247 . S
O78 Zn75 2.028 . S
O79 C71 1.258 . S
O79 Zn73 2.035 . S
O80 Zn73 2.028 . S
O80 C83 1.247 . S
O81 Zn75 2.035 . S
O81 C83 1.258 . S
C82 O76 1.247 . S
C82 O77 1.258 . S
C83 O80 1.247 . S
C83 O81 1.258 . S
C43 C3 1.468 . S
C21 C69 1.518 . S
C37 C71 1.451 . S
C8 C55 1.484 . S
C57 C23 1.448 . S
C35 C83 1.462 . S
C56 C31 1.474 . S
C7 C82 1.468 1_554 S
C42 C17 1.468 . S
C68 C36 1.436 . S
C70 C9 1.452 1_556 S
C22 C54 1.489 . S
