# Generated by pormake.
# Topology nia, (6,6)-cn, num edge types: 1
# Building blocks:
#     Node 0, Type 0, BuildingBlock: JUFBIX_clean_sbu_0, # of connection points: 6
#     Node 1, Type 0, BuildingBlock: JUFBIX_clean_sbu_0, # of connection points: 6
#     Node 2, Type 1, BuildingBlock: MIDCAF_clean_sbu_0, # of connection points: 6
#     Node 3, Type 1, BuildingBlock: MIDCAF_clean_sbu_0, # of connection points: 6
#     Edge 4, Type (0, 1), BuildingBlock: AJUNOK_clean_linker_0, # of connection points: 2
#     Edge 5, Type (0, 1), BuildingBlock: AJUNOK_clean_linker_0, # of connection points: 2
#     Edge 6, Type (0, 1), BuildingBlock: AJUNOK_clean_linker_0, # of connection points: 2
#     Edge 7, Type (0, 1), BuildingBlock: AJUNOK_clean_linker_0, # of connection points: 2
#     Edge 8, Type (0, 1), BuildingBlock: AJUNOK_clean_linker_0, # of connection points: 2
#     Edge 9, Type (0, 1), BuildingBlock: AJUNOK_clean_linker_0, # of connection points: 2
#     Edge 10, Type (0, 1), BuildingBlock: AJUNOK_clean_linker_0, # of connection points: 2
#     Edge 11, Type (0, 1), BuildingBlock: AJUNOK_clean_linker_0, # of connection points: 2
#     Edge 12, Type (0, 1), BuildingBlock: AJUNOK_clean_linker_0, # of connection points: 2
#     Edge 13, Type (0, 1), BuildingBlock: AJUNOK_clean_linker_0, # of connection points: 2
#     Edge 14, Type (0, 1), BuildingBlock: AJUNOK_clean_linker_0, # of connection points: 2
#     Edge 15, Type (0, 1), BuildingBlock: AJUNOK_clean_linker_0, # of connection points: 2
# Relax obj value: 0.168
# Max RMSD: 0.242
# Mean RMSD: 0.164
data_MOF--net-nia--node1-JUFBIX_clean_sbu_0--node2-MIDCAF_clean_sbu_0--edge1-AJUNOK_clean_linker_0
_symmetry_space_group_name_H-M    P1
_symmetry_Int_Tables_number       1
_symmetry_cell_setting            triclinic
loop_
_symmetry_equiv_pos_as_xyz
'x, y, z'
_cell_length_a     17.936855
_cell_length_b     17.983482
_cell_length_c     25.12995
_cell_angle_alpha  82.501363
_cell_angle_beta   82.141821
_cell_angle_gamma 119.51109
loop_
_atom_site_label
_atom_site_type_symbol
_atom_site_fract_x
_atom_site_fract_y
_atom_site_fract_z
_atom_type_partial_charge
Co0 Co 0.96024 0.92601 1.04567 0.0
C1 C 0.85085 0.93842 0.13198 0.0
Co2 Co 0.01715 0.05522 0.06806 0.0
C3 C 0.90461 0.7894 0.98239 0.0
C4 C 0.86025 0.7403 0.07017 0.0
N5 N 0.90515 0.81541 1.03062 0.0
N6 N 0.86172 0.70104 0.99092 0.0
C7 C 0.83386 0.67022 1.04598 0.0
H8 H 0.93802 0.83407 0.94221 0.0
H9 H 0.85002 0.73674 0.11405 0.0
C10 C 0.12527 0.04163 0.98106 0.0
N11 N 0.07683 0.1646 0.08622 0.0
C12 C 0.0483 0.20264 0.1203 0.0
C13 C 0.1657 0.21283 0.07728 0.0
N14 N 0.11614 0.2711 0.13295 0.0
C15 C 0.18969 0.27786 0.10566 0.0
C16 C 0.0506 0.93768 0.12749 0.0
O17 O 0.06312 0.96218 0.98996 0.0
O18 O 0.11706 0.09055 1.01049 0.0
O19 O 0.0645 0.01488 0.11961 0.0
O20 O 0.00629 0.88649 0.0988 0.0
O21 O 0.91428 0.01711 0.12482 0.0
H22 H 0.21112 0.19852 0.05485 0.0
H23 H -0.02035 0.17761 0.13828 0.0
O24 O 0.85823 0.89034 0.10138 0.0
O25 O 0.91444 0.96722 0.99295 0.0
O26 O -0.02999 0.0951 1.01601 0.0
C27 C 0.92658 0.04421 0.98646 0.0
H28 H 0.7987 0.60164 0.06715 0.0
H29 H 0.2561 0.32497 0.10768 0.0
Co30 Co 0.05062 0.01223 0.56632 0.0
C31 C 0.05389 0.13416 0.48289 0.0
Co32 Co 0.92315 0.96893 0.54359 0.0
C33 C 0.18996 0.05245 0.62613 0.0
C34 C 0.23418 0.0785 0.53839 0.0
N35 N 0.16172 0.04912 0.57873 0.0
N36 N 0.277 0.08187 0.6165 0.0
C37 C 0.30474 0.09815 0.56143 0.0
H38 H 0.1475 0.03273 0.66667 0.0
H39 H 0.23571 0.08544 0.49479 0.0
C40 C 0.92086 0.84781 0.62749 0.0
N41 N 0.81235 0.93251 0.53074 0.0
C42 C 0.78551 0.93239 0.48293 0.0
C43 C 0.73918 0.90171 0.57079 0.0
N44 N 0.69883 0.90421 0.49201 0.0
C45 C 0.66955 0.88444 0.54716 0.0
C46 C 0.02052 0.91967 0.48126 0.0
O47 O 0.002 0.9055 0.62022 0.0
O48 O 0.87529 0.86273 0.598 0.0
O49 O 0.94634 0.91418 0.48875 0.0
O50 O 0.07344 0.95842 0.51077 0.0
O51 O -0.02715 0.0767 0.48907 0.0
H52 H 0.73669 0.89269 0.61454 0.0
H53 H 0.82872 0.9538 0.44244 0.0
O54 O 0.0981 0.1178 0.51276 0.0
O55 O 0.02702 0.06642 0.62143 0.0
O56 O 0.9003 0.02302 0.59899 0.0
C57 C 0.95306 0.06152 0.62867 0.0
H58 H 0.37186 0.12392 0.53934 0.0
H59 H 0.60214 0.85827 0.56881 0.0
Zn60 Zn 0.33399 0.74239 0.20425 0.0
Zn61 Zn 0.2384 0.65206 0.4097 0.0
Zn62 Zn 0.28885 0.69186 0.30809 0.0
C63 C 0.41861 0.77594 0.38466 0.0
C64 C 0.20436 0.49762 0.3835 0.0
O65 O 0.22818 0.76621 0.27835 0.0
O66 O 0.30419 0.83384 0.1924 0.0
C67 C 0.48998 0.79187 0.23297 0.0
O68 O 0.41159 0.7566 0.33732 0.0
O69 O 0.35039 0.74513 0.42273 0.0
O70 O 0.21505 0.53155 0.42476 0.0
O71 O 0.22116 0.5453 0.33539 0.0
O72 O 0.46018 0.78251 0.19015 0.0
O73 O 0.43715 0.76611 0.2808 0.0
O74 O 0.22902 0.56909 0.27902 0.0
O75 O 0.2482 0.62605 0.19131 0.0
C76 C 0.21432 0.55959 0.23087 0.0
O77 O 0.20609 0.74667 0.33745 0.0
O78 O 0.13678 0.66862 0.42257 0.0
C79 C 0.24587 0.82044 0.23292 0.0
C80 C 0.1485 0.72596 0.38227 0.0
Zn81 Zn 0.63857 0.23554 0.90728 0.0
Zn82 Zn 0.74223 0.33528 0.69988 0.0
Zn83 Zn 0.68629 0.29067 0.80326 0.0
C84 C 0.77894 0.48869 0.72848 0.0
C85 C 0.55929 0.21497 0.7236 0.0
O86 O 0.74945 0.21752 0.83323 0.0
O87 O 0.6784 0.15255 0.92037 0.0
C88 C 0.74802 0.42067 0.88308 0.0
O89 O 0.75356 0.43734 0.77659 0.0
O90 O 0.77546 0.45877 0.68569 0.0
O91 O 0.62801 0.24883 0.68542 0.0
O92 O 0.56528 0.2279 0.77243 0.0
O93 O 0.71315 0.35316 0.92196 0.0
O94 O 0.74118 0.41283 0.83351 0.0
O95 O 0.5376 0.21492 0.82955 0.0
O96 O 0.51142 0.18592 0.92076 0.0
C97 C 0.48329 0.18235 0.87736 0.0
O98 O 0.76984 0.23589 0.77418 0.0
O99 O 0.83807 0.31066 0.68815 0.0
C100 C 0.73537 0.16579 0.87906 0.0
C101 C 0.82664 0.25483 0.72928 0.0
C102 C 0.17896 0.97081 0.16846 0.0
C103 C 0.09237 0.91063 0.16591 0.0
C104 C 0.22682 0.94275 0.19576 0.0
C105 C 0.18849 0.85444 0.22284 0.0
H106 H 0.21224 0.03846 0.14561 0.0
H107 H 0.29591 -0.01096 0.19258 0.0
S108 S 0.95922 0.67472 0.23612 0.0
N109 N -0.03304 0.76138 0.1979 0.0
N110 N 0.05623 0.70933 0.25108 0.0
C111 C 0.09932 0.7957 0.22533 0.0
C112 C 0.05135 0.82363 0.1962 0.0
C113 C 0.39793 0.075 0.64684 0.0
C114 C 0.33278 0.09692 0.65486 0.0
C115 C 0.4672 0.10757 0.67354 0.0
C116 C 0.47378 0.16308 0.70948 0.0
H117 H 0.39811 0.0366 0.61705 0.0
H118 H 0.51896 0.0935 0.66339 0.0
S119 S 0.31529 0.23311 0.74874 0.0
N120 N 0.2746 0.17115 0.70483 0.0
N121 N 0.4058 0.23314 0.75513 0.0
C122 C 0.40537 0.17984 0.72143 0.0
C123 C 0.3344 0.14643 0.69406 0.0
C124 C 0.16228 0.33681 0.2111 0.0
C125 C 0.11495 0.32568 0.16949 0.0
C126 C 0.18653 0.40849 0.23585 0.0
C127 C 0.16562 0.47207 0.21873 0.0
H128 H 0.18616 0.29325 0.2215 0.0
H129 H 0.22858 0.41835 0.26462 0.0
S130 S 0.03044 0.46479 0.11797 0.0
N131 N 0.03818 0.37696 0.11782 0.0
N132 N 0.08476 0.51296 0.16336 0.0
C133 C 0.11134 0.45705 0.18097 0.0
C134 C 0.08557 0.38333 0.15657 0.0
C135 C 0.8427 0.06421 0.69918 0.0
C136 C 0.92969 0.10579 0.66753 0.0
C137 C 0.81241 0.1113 0.72611 0.0
C138 C 0.86743 0.20205 0.72065 0.0
H139 H 0.79634 -0.00401 0.70048 0.0
H140 H 0.74332 0.07833 0.74661 0.0
S141 S 0.10315 0.33914 0.6479 0.0
N142 N 0.07304 0.24022 0.63779 0.0
N143 N 0.01494 0.32975 0.68606 0.0
C144 C 0.95619 0.24274 0.69269 0.0
C145 C -0.01231 0.19428 0.66664 0.0
C146 C 0.73123 0.958 0.17925 0.0
C147 C 0.76563 0.90368 0.17171 0.0
C148 C 0.64222 0.92182 0.20532 0.0
C149 C 0.58566 0.83068 0.22584 0.0
H150 H 0.77104 0.02778 0.16086 0.0
H151 H 0.61591 0.96463 0.20568 0.0
S152 S 0.64694 0.66216 0.22467 0.0
N153 N 0.73871 0.75544 0.1931 0.0
N154 N 0.57222 0.68836 0.2423 0.0
C155 C 0.62129 0.77694 0.22311 0.0
C156 C 0.71122 0.81328 0.19605 0.0
C157 C 0.93632 0.73154 0.68281 0.0
C158 C 0.88155 0.76083 0.6659 0.0
C159 C 0.90127 0.64356 0.70944 0.0
C160 C 0.8104 0.58263 0.72084 0.0
H161 H 0.00723 0.77503 0.67193 0.0
H162 H 0.94607 0.6217 0.71733 0.0
S163 S 0.63736 0.62825 0.69407 0.0
N164 N 0.7304 0.72354 0.66949 0.0
N165 N 0.66555 0.55857 0.71912 0.0
C166 C 0.75445 0.61249 0.70862 0.0
C167 C 0.78976 0.70164 0.68137 0.0
C168 C -0.01074 0.78386 0.44966 0.0
C169 C 0.04357 0.87497 0.44278 0.0
C170 C 0.02088 0.73592 0.42505 0.0
C171 C 0.10685 0.77792 0.39171 0.0
H172 H 0.92507 0.74851 0.47803 0.0
H173 H -0.01997 0.66493 0.43524 0.0
S174 S 0.26913 0.01725 0.35416 0.0
N175 N 0.18319 0.00665 0.39592 0.0
N176 N 0.2415 0.91708 0.34801 0.0
C177 C 0.15816 0.86999 0.38007 0.0
C178 C 0.12684 0.91845 0.40624 0.0
C179 C 0.24146 0.02064 0.93006 0.0
C180 C 0.20991 0.07635 0.94069 0.0
C181 C 0.32964 0.05534 0.90284 0.0
C182 C 0.38819 0.14648 0.88424 0.0
H183 H 0.20015 0.95048 0.94682 0.0
H184 H 0.35389 0.01108 0.90023 0.0
S185 S 0.3348 0.31927 0.89383 0.0
N186 N 0.24161 0.22659 0.92416 0.0
N187 N 0.40672 0.29089 0.87325 0.0
C188 C 0.35537 0.20205 0.89018 0.0
C189 C 0.26623 0.16717 0.91822 0.0
C190 C 0.18331 0.28606 0.44614 0.0
C191 C 0.09624 0.22294 0.4458 0.0
C192 C 0.22092 0.37449 0.42076 0.0
C193 C 0.17402 0.40354 0.393 0.0
H194 H 0.22141 0.2684 0.46907 0.0
H195 H 0.28547 0.42149 0.42584 0.0
S196 S 0.95031 0.26456 0.37152 0.0
N197 N -0.03184 0.19494 0.40915 0.0
N198 N 0.04035 0.36228 0.36089 0.0
C199 C 0.09028 0.34086 0.38777 0.0
C200 C 0.05104 0.2502 0.41428 0.0
C201 C 0.92254 0.16297 0.92544 0.0
C202 C 0.88612 0.07285 0.94731 0.0
C203 C 0.87763 0.1927 0.89598 0.0
C204 C 0.79429 0.13336 0.88833 0.0
H205 H -0.01588 0.21113 0.93343 0.0
H206 H 0.9046 0.26277 0.88355 0.0
S207 S 0.67494 0.89096 0.93111 0.0
N208 N 0.76625 0.92422 0.95344 0.0
N209 N 0.68064 -0.01898 0.90001 0.0
C210 C 0.76015 0.04319 0.90631 0.0
C211 C 0.80651 0.01264 0.9353 0.0
C212 C 0.63983 0.83963 0.41536 0.0
C213 C 0.64492 0.89282 0.45282 0.0
C214 C 0.57047 0.80837 0.38793 0.0
C215 C 0.50474 0.82951 0.39763 0.0
H216 H 0.6852 0.81639 0.41085 0.0
H217 H 0.56409 0.76163 0.363 0.0
S218 S 0.50055 -0.01798 0.48233 0.0
N219 N 0.58777 -0.02312 0.49071 0.0
N220 N 0.45751 0.918 0.4399 0.0
C221 C 0.51492 0.88993 0.43041 0.0
C222 C 0.5851 0.92163 0.4579 0.0
C223 C 0.87785 0.58451 0.96162 0.0
C224 C 0.85383 0.64753 0.95185 0.0
C225 C 0.84976 0.51545 0.93473 0.0
C226 C 0.79651 0.50681 0.897 0.0
H227 H 0.91374 0.58552 0.99315 0.0
H228 H 0.86501 0.46514 0.94629 0.0
S229 S 0.72435 0.66078 0.85216 0.0
N230 N 0.78157 0.70266 0.898 0.0
N231 N 0.72764 0.57159 0.84726 0.0
C232 C 0.77833 0.57354 0.88316 0.0
C233 C 0.80731 0.64441 0.91072 0.0
loop_
_geom_bond_atom_site_label_1
_geom_bond_atom_site_label_2
_geom_bond_distance
_geom_bond_site_symmetry_2
_ccdc_geom_bond_type
Co0 N5 2.057 . S
Co0 O17 2.021 1_665 S
Co0 O20 2.062 1_656 S
Co0 O24 2.117 1_556 S
Co0 O25 2.020 1_565 S
C1 O21 1.259 1_565 S
C1 O24 1.258 . S
Co2 N11 2.057 . S
Co2 O18 2.117 1_554 S
Co2 O19 2.020 . S
Co2 O21 2.021 1_455 S
Co2 O26 2.062 1_454 S
C3 N5 1.316 . S
C3 N6 1.347 . S
C3 H8 0.931 1_655 S
C4 N5 1.375 . S
C4 C7 1.350 . S
C4 H9 0.930 . S
N5 Co0 2.057 . S
N5 C3 1.316 . S
N5 C4 1.375 . S
N6 C3 1.347 . S
N6 C7 1.373 . S
C7 C4 1.350 . S
C7 N6 1.373 . S
C7 H28 0.931 . S
H8 C3 0.931 1_455 S
H9 C4 0.930 . S
C10 O17 1.259 . S
C10 O18 1.258 . S
N11 Co2 2.057 . S
N11 C12 1.316 . S
N11 C13 1.375 . S
C12 N11 1.316 . S
C12 N14 1.347 . S
C12 H23 0.931 . S
C13 N11 1.375 . S
C13 C15 1.350 . S
C13 H22 0.930 . S
N14 C12 1.347 . S
N14 C15 1.373 . S
C15 C13 1.350 . S
C15 N14 1.373 . S
C15 H29 0.931 . S
C16 O19 1.256 1_565 S
C16 O20 1.255 . S
O17 Co0 2.021 1_445 S
O17 C10 1.259 . S
O18 Co2 2.117 1_556 S
O18 C10 1.258 . S
O19 Co2 2.020 . S
O19 C16 1.256 1_545 S
O20 Co0 2.062 1_454 S
O20 C16 1.255 . S
O21 C1 1.259 1_545 S
O21 Co2 2.021 1_655 S
H22 C13 0.930 . S
H23 C12 0.931 . S
O24 Co0 2.117 1_554 S
O24 C1 1.258 . S
O25 Co0 2.020 1_545 S
O25 C27 1.256 . S
O26 Co2 2.062 1_656 S
O26 C27 1.255 . S
C27 O25 1.256 . S
C27 O26 1.255 . S
H28 C7 0.931 . S
H29 C15 0.931 . S
Co30 N35 2.057 . S
Co30 O47 2.021 1_545 S
Co30 O50 2.062 1_545 S
Co30 O54 2.117 . S
Co30 O55 2.020 1_455 S
C31 O51 1.259 . S
C31 O54 1.258 . S
Co32 N41 2.057 . S
Co32 O48 2.117 . S
Co32 O49 2.020 1_655 S
Co32 O51 2.021 1_665 S
Co32 O56 2.062 1_565 S
C33 N35 1.316 . S
C33 N36 1.347 . S
C33 H38 0.931 . S
C34 N35 1.375 . S
C34 C37 1.350 . S
C34 H39 0.930 . S
N35 Co30 2.057 . S
N35 C33 1.316 . S
N35 C34 1.375 . S
N36 C33 1.347 . S
N36 C37 1.373 . S
C37 C34 1.350 . S
C37 N36 1.373 . S
C37 H58 0.931 . S
H38 C33 0.931 . S
H39 C34 0.930 . S
C40 O47 1.259 1_655 S
C40 O48 1.258 . S
N41 Co32 2.057 . S
N41 C42 1.316 . S
N41 C43 1.375 . S
C42 N41 1.316 . S
C42 N44 1.347 . S
C42 H53 0.931 . S
C43 N41 1.375 . S
C43 C45 1.350 . S
C43 H52 0.930 . S
N44 C42 1.347 . S
N44 C45 1.373 . S
C45 C43 1.350 . S
C45 N44 1.373 . S
C45 H59 0.931 . S
C46 O49 1.256 . S
C46 O50 1.255 . S
O47 Co30 2.021 1_565 S
O47 C40 1.259 1_455 S
O48 Co32 2.117 . S
O48 C40 1.258 . S
O49 Co32 2.020 1_455 S
O49 C46 1.256 . S
O50 Co30 2.062 1_565 S
O50 C46 1.255 . S
O51 C31 1.259 . S
O51 Co32 2.021 1_445 S
H52 C43 0.930 . S
H53 C42 0.931 . S
O54 Co30 2.117 . S
O54 C31 1.258 . S
O55 Co30 2.020 1_655 S
O55 C57 1.256 . S
O56 Co32 2.062 1_545 S
O56 C57 1.255 . S
C57 O55 1.256 . S
C57 O56 1.255 . S
H58 C37 0.931 . S
H59 C45 0.931 . S
Zn60 O66 1.920 . S
Zn60 O72 1.898 . S
Zn60 O75 1.905 . S
Zn61 O69 1.905 . S
Zn61 O70 1.898 . S
Zn61 O78 1.920 . S
Zn62 O65 2.080 . S
Zn62 O68 2.114 . S
Zn62 O71 2.120 . S
Zn62 O73 2.120 . S
Zn62 O74 2.114 . S
Zn62 O77 2.080 . S
C63 O68 1.166 . S
C63 O69 1.182 . S
C64 O70 1.167 . S
C64 O71 1.299 . S
O65 Zn62 2.080 . S
O65 C79 1.305 . S
O66 Zn60 1.920 . S
O66 C79 1.234 . S
C67 O72 1.167 . S
C67 O73 1.299 . S
O68 Zn62 2.114 . S
O68 C63 1.166 . S
O69 Zn61 1.905 . S
O69 C63 1.182 . S
O70 Zn61 1.898 . S
O70 C64 1.167 . S
O71 Zn62 2.120 . S
O71 C64 1.299 . S
O72 Zn60 1.898 . S
O72 C67 1.167 . S
O73 Zn62 2.120 . S
O73 C67 1.299 . S
O74 Zn62 2.114 . S
O74 C76 1.166 . S
O75 Zn60 1.905 . S
O75 C76 1.182 . S
C76 O74 1.166 . S
C76 O75 1.182 . S
O77 Zn62 2.080 . S
O77 C80 1.305 . S
O78 Zn61 1.920 . S
O78 C80 1.234 . S
C79 O65 1.305 . S
C79 O66 1.234 . S
C80 O77 1.305 . S
C80 O78 1.234 . S
Zn81 O87 1.920 . S
Zn81 O93 1.898 . S
Zn81 O96 1.905 . S
Zn82 O90 1.905 . S
Zn82 O91 1.898 . S
Zn82 O99 1.920 . S
Zn83 O86 2.080 . S
Zn83 O89 2.114 . S
Zn83 O92 2.120 . S
Zn83 O94 2.120 . S
Zn83 O95 2.114 . S
Zn83 O98 2.080 . S
C84 O89 1.166 . S
C84 O90 1.182 . S
C85 O91 1.167 . S
C85 O92 1.299 . S
O86 Zn83 2.080 . S
O86 C100 1.305 . S
O87 Zn81 1.920 . S
O87 C100 1.234 . S
C88 O93 1.167 . S
C88 O94 1.299 . S
O89 Zn83 2.114 . S
O89 C84 1.166 . S
O90 Zn82 1.905 . S
O90 C84 1.182 . S
O91 Zn82 1.898 . S
O91 C85 1.167 . S
O92 Zn83 2.120 . S
O92 C85 1.299 . S
O93 Zn81 1.898 . S
O93 C88 1.167 . S
O94 Zn83 2.120 . S
O94 C88 1.299 . S
O95 Zn83 2.114 . S
O95 C97 1.166 . S
O96 Zn81 1.905 . S
O96 C97 1.182 . S
C97 O95 1.166 . S
C97 O96 1.182 . S
O98 Zn83 2.080 . S
O98 C101 1.305 . S
O99 Zn82 1.920 . S
O99 C101 1.234 . S
C100 O86 1.305 . S
C100 O87 1.234 . S
C101 O98 1.305 . S
C101 O99 1.234 . S
C102 C103 1.369 . S
C102 C104 1.419 . S
C102 H106 0.930 . S
C103 C102 1.369 . S
C103 C112 1.429 . S
C104 C102 1.419 . S
C104 C105 1.363 . S
C104 H107 0.929 . S
C105 C104 1.363 . S
C105 C111 1.428 . S
H106 C102 0.930 . S
H107 C104 0.929 . S
S108 N109 1.613 . S
S108 N110 1.610 . S
N109 S108 1.613 . S
N109 C112 1.350 . S
N110 S108 1.610 . S
N110 C111 1.351 . S
C111 C105 1.428 . S
C111 N110 1.351 . S
C111 C112 1.434 . S
C112 C103 1.429 . S
C112 N109 1.350 . S
C112 C111 1.434 . S
C113 C114 1.369 . S
C113 C115 1.419 . S
C113 H117 0.930 . S
C114 C113 1.369 . S
C114 C123 1.429 . S
C115 C113 1.419 . S
C115 C116 1.363 . S
C115 H118 0.929 . S
C116 C115 1.363 . S
C116 C122 1.428 . S
H117 C113 0.930 . S
H118 C115 0.929 . S
S119 N120 1.613 . S
S119 N121 1.610 . S
N120 S119 1.613 . S
N120 C123 1.350 . S
N121 S119 1.610 . S
N121 C122 1.351 . S
C122 C116 1.428 . S
C122 N121 1.351 . S
C122 C123 1.434 . S
C123 C114 1.429 . S
C123 N120 1.350 . S
C123 C122 1.434 . S
C124 C125 1.369 . S
C124 C126 1.419 . S
C124 H128 0.930 . S
C125 C124 1.369 . S
C125 C134 1.429 . S
C126 C124 1.419 . S
C126 C127 1.363 . S
C126 H129 0.929 . S
C127 C126 1.363 . S
C127 C133 1.428 . S
H128 C124 0.930 . S
H129 C126 0.929 . S
S130 N131 1.613 . S
S130 N132 1.610 . S
N131 S130 1.613 . S
N131 C134 1.350 . S
N132 S130 1.610 . S
N132 C133 1.351 . S
C133 C127 1.428 . S
C133 N132 1.351 . S
C133 C134 1.434 . S
C134 C125 1.429 . S
C134 N131 1.350 . S
C134 C133 1.434 . S
C135 C136 1.369 . S
C135 C137 1.419 . S
C135 H139 0.930 . S
C136 C135 1.369 . S
C136 C145 1.429 . S
C137 C135 1.419 . S
C137 C138 1.363 . S
C137 H140 0.929 . S
C138 C137 1.363 . S
C138 C144 1.428 . S
H139 C135 0.930 . S
H140 C137 0.929 . S
S141 N142 1.613 . S
S141 N143 1.610 . S
N142 S141 1.613 . S
N142 C145 1.350 1_455 S
N143 S141 1.610 . S
N143 C144 1.351 1_455 S
C144 C138 1.428 . S
C144 N143 1.351 1_655 S
C144 C145 1.434 . S
C145 C136 1.429 . S
C145 N142 1.350 1_655 S
C145 C144 1.434 . S
C146 C147 1.369 . S
C146 C148 1.419 . S
C146 H150 0.930 . S
C147 C146 1.369 . S
C147 C156 1.429 . S
C148 C146 1.419 . S
C148 C149 1.363 . S
C148 H151 0.929 . S
C149 C148 1.363 . S
C149 C155 1.428 . S
H150 C146 0.930 . S
H151 C148 0.929 . S
S152 N153 1.613 . S
S152 N154 1.610 . S
N153 S152 1.613 . S
N153 C156 1.350 . S
N154 S152 1.610 . S
N154 C155 1.351 . S
C155 C149 1.428 . S
C155 N154 1.351 . S
C155 C156 1.434 . S
C156 C147 1.429 . S
C156 N153 1.350 . S
C156 C155 1.434 . S
C157 C158 1.369 . S
C157 C159 1.419 . S
C157 H161 0.930 . S
C158 C157 1.369 . S
C158 C167 1.429 . S
C159 C157 1.419 . S
C159 C160 1.363 . S
C159 H162 0.929 . S
C160 C159 1.363 . S
C160 C166 1.428 . S
H161 C157 0.930 . S
H162 C159 0.929 . S
S163 N164 1.613 . S
S163 N165 1.610 . S
N164 S163 1.613 . S
N164 C167 1.350 . S
N165 S163 1.610 . S
N165 C166 1.351 . S
C166 C160 1.428 . S
C166 N165 1.351 . S
C166 C167 1.434 . S
C167 C158 1.429 . S
C167 N164 1.350 . S
C167 C166 1.434 . S
C168 C169 1.369 . S
C168 C170 1.419 . S
C168 H172 0.930 . S
C169 C168 1.369 . S
C169 C178 1.429 . S
C170 C168 1.419 . S
C170 C171 1.363 . S
C170 H173 0.929 . S
C171 C170 1.363 . S
C171 C177 1.428 . S
H172 C168 0.930 . S
H173 C170 0.929 . S
S174 N175 1.613 . S
S174 N176 1.610 . S
N175 S174 1.613 . S
N175 C178 1.350 1_545 S
N176 S174 1.610 . S
N176 C177 1.351 1_545 S
C177 C171 1.428 . S
C177 N176 1.351 1_565 S
C177 C178 1.434 . S
C178 C169 1.429 . S
C178 N175 1.350 1_565 S
C178 C177 1.434 . S
C179 C180 1.369 . S
C179 C181 1.419 . S
C179 H183 0.930 . S
C180 C179 1.369 . S
C180 C189 1.429 . S
C181 C179 1.419 . S
C181 C182 1.363 . S
C181 H184 0.929 . S
C182 C181 1.363 . S
C182 C188 1.428 . S
H183 C179 0.930 . S
H184 C181 0.929 . S
S185 N186 1.613 . S
S185 N187 1.610 . S
N186 S185 1.613 . S
N186 C189 1.350 . S
N187 S185 1.610 . S
N187 C188 1.351 . S
C188 C182 1.428 . S
C188 N187 1.351 . S
C188 C189 1.434 . S
C189 C180 1.429 . S
C189 N186 1.350 . S
C189 C188 1.434 . S
C190 C191 1.369 . S
C190 C192 1.419 . S
C190 H194 0.930 . S
C191 C190 1.369 . S
C191 C200 1.429 . S
C192 C190 1.419 . S
C192 C193 1.363 . S
C192 H195 0.929 . S
C193 C192 1.363 . S
C193 C199 1.428 . S
H194 C190 0.930 . S
H195 C192 0.929 . S
S196 N197 1.613 . S
S196 N198 1.610 1_655 S
N197 S196 1.613 . S
N197 C200 1.350 1_655 S
N198 S196 1.610 1_455 S
N198 C199 1.351 . S
C199 C193 1.428 . S
C199 N198 1.351 . S
C199 C200 1.434 . S
C200 C191 1.429 . S
C200 N197 1.350 1_455 S
C200 C199 1.434 . S
C201 C202 1.369 . S
C201 C203 1.419 . S
C201 H205 0.930 . S
C202 C201 1.369 . S
C202 C211 1.429 . S
C203 C201 1.419 . S
C203 C204 1.363 . S
C203 H206 0.929 . S
C204 C203 1.363 . S
C204 C210 1.428 . S
H205 C201 0.930 . S
H206 C203 0.929 . S
S207 N208 1.614 1_565 S
S207 N209 1.608 1_565 S
N208 S207 1.614 1_545 S
N208 C211 1.350 . S
N209 S207 1.608 1_545 S
N209 C210 1.351 . S
C210 C204 1.428 . S
C210 N209 1.351 . S
C210 C211 1.434 . S
C211 C202 1.429 . S
C211 N208 1.350 . S
C211 C210 1.434 . S
C212 C213 1.369 . S
C212 C214 1.419 . S
C212 H216 0.930 . S
C213 C212 1.369 . S
C213 C222 1.429 . S
C214 C212 1.419 . S
C214 C215 1.363 . S
C214 H217 0.929 . S
C215 C214 1.363 . S
C215 C221 1.428 . S
H216 C212 0.930 . S
H217 C214 0.929 . S
S218 N219 1.613 . S
S218 N220 1.610 . S
N219 S218 1.613 . S
N219 C222 1.350 . S
N220 S218 1.610 . S
N220 C221 1.351 . S
C221 C215 1.428 . S
C221 N220 1.351 . S
C221 C222 1.434 . S
C222 C213 1.429 . S
C222 N219 1.350 . S
C222 C221 1.434 . S
C223 C224 1.369 . S
C223 C225 1.419 . S
C223 H227 0.930 . S
C224 C223 1.369 . S
C224 C233 1.429 . S
C225 C223 1.419 . S
C225 C226 1.363 . S
C225 H228 0.929 . S
C226 C225 1.363 . S
C226 C232 1.428 . S
H227 C223 0.930 . S
H228 C225 0.929 . S
S229 N230 1.613 . S
S229 N231 1.610 1_455 S
N230 S229 1.613 . S
N230 C233 1.350 1_455 S
N231 S229 1.610 1_655 S
N231 C232 1.351 . S
C232 C226 1.428 . S
C232 N231 1.351 . S
C232 C233 1.434 . S
C233 C224 1.429 . S
C233 N230 1.350 1_655 S
C233 C232 1.434 . S
C103 C16 1.525 . S
C105 C79 1.342 . S
C114 N36 1.242 . S
C116 C85 1.123 . S
C125 N14 1.246 . S
C127 C76 1.178 . S
C136 C57 1.710 . S
C138 C101 1.505 . S
C147 C1 1.856 . S
C149 C67 1.700 . S
C160 C84 1.595 . S
C158 C40 1.699 . S
C169 C46 1.525 . S
C171 C80 1.352 . S
C182 C97 1.596 . S
C180 C10 1.699 . S
C193 C64 1.706 . S
C191 C31 1.854 . S
C204 C100 1.500 . S
C202 C27 1.709 . S
C215 C63 1.177 . S
C213 N44 1.256 . S
C226 C88 1.132 . S
C224 N6 1.246 . S
