# Generated by pormake.
# Topology tsx, (6,3)-cn, num edge types: 1
# Building blocks:
#     Node 0, Type 0, BuildingBlock: FUNLAD_clean_sbu_0, # of connection points: 6
#     Node 1, Type 0, BuildingBlock: FUNLAD_clean_sbu_0, # of connection points: 6
#     Node 2, Type 1, BuildingBlock: OLANEW_clean_sbu_2, # of connection points: 3
#     Node 3, Type 1, BuildingBlock: OLANEW_clean_sbu_2, # of connection points: 3
#     Node 4, Type 1, BuildingBlock: OLANEW_clean_sbu_2, # of connection points: 3
#     Node 5, Type 1, BuildingBlock: OLANEW_clean_sbu_2, # of connection points: 3
#     Edge 6, Type (0, 1), BuildingBlock: OJICUG_clean_linker_0, # of connection points: 2
#     Edge 7, Type (0, 1), BuildingBlock: OJICUG_clean_linker_0, # of connection points: 2
#     Edge 8, Type (0, 1), BuildingBlock: OJICUG_clean_linker_0, # of connection points: 2
#     Edge 9, Type (0, 1), BuildingBlock: OJICUG_clean_linker_0, # of connection points: 2
#     Edge 10, Type (0, 1), BuildingBlock: OJICUG_clean_linker_0, # of connection points: 2
#     Edge 11, Type (0, 1), BuildingBlock: OJICUG_clean_linker_0, # of connection points: 2
#     Edge 12, Type (0, 1), BuildingBlock: OJICUG_clean_linker_0, # of connection points: 2
#     Edge 13, Type (0, 1), BuildingBlock: OJICUG_clean_linker_0, # of connection points: 2
#     Edge 14, Type (0, 1), BuildingBlock: OJICUG_clean_linker_0, # of connection points: 2
#     Edge 15, Type (0, 1), BuildingBlock: OJICUG_clean_linker_0, # of connection points: 2
#     Edge 16, Type (0, 1), BuildingBlock: OJICUG_clean_linker_0, # of connection points: 2
#     Edge 17, Type (0, 1), BuildingBlock: OJICUG_clean_linker_0, # of connection points: 2
# Relax obj value: 0.082
# Max RMSD: 0.101
# Mean RMSD: 0.093
data_MOF--net-tsx--node1-FUNLAD_clean_sbu_0--node2-OLANEW_clean_sbu_2--edge1-OJICUG_clean_linker_0
_symmetry_space_group_name_H-M    P1
_symmetry_Int_Tables_number       1
_symmetry_cell_setting            triclinic
loop_
_symmetry_equiv_pos_as_xyz
'x, y, z'
_cell_length_a     15.675014
_cell_length_b     17.300507
_cell_length_c     31.317096
_cell_angle_alpha  97.379113
_cell_angle_beta   92.372822
_cell_angle_gamma 89.131391
loop_
_atom_site_label
_atom_site_type_symbol
_atom_site_fract_x
_atom_site_fract_y
_atom_site_fract_z
_atom_type_partial_charge
C0 C 0.87553 0.98163 0.01538 0.0
N1 N 0.00073 0.09874 0.12518 0.0
C2 C 0.92388 0.09044 0.14261 0.0
C3 C 0.91953 0.08055 0.18601 0.0
C4 C 0.9948 0.08159 0.21228 0.0
C5 C 0.07224 0.09681 0.194 0.0
C6 C 0.07402 0.1035 0.1502 0.0
Zn7 Zn 0.01041 0.08779 0.0596 0.0
C8 C 0.11589 0.94652 0.02989 0.0
N9 N 0.03527 0.05058 0.92357 0.0
C10 C 0.96884 0.06202 0.89566 0.0
C11 C 0.11418 0.02963 0.90922 0.0
C12 C 0.12841 0.01817 0.86523 0.0
C13 C 0.06112 0.02947 0.83576 0.0
C14 C 0.98059 0.0522 0.85132 0.0
Zn15 Zn 0.01988 0.06512 0.9884 0.0
O16 O 0.90489 0.01379 0.05156 0.0
C17 C 0.90893 0.20325 0.01615 0.0
O18 O 0.91054 0.99381 0.98102 0.0
H19 H 0.1664 0.02161 0.93193 0.0
H20 H 0.86607 0.08726 0.12244 0.0
H21 H 0.90665 0.07847 0.90778 0.0
O22 O 0.92707 0.186 0.05387 0.0
O23 O 0.94212 0.164 0.98378 0.0
H24 H 0.13493 0.10891 0.136 0.0
O25 O 0.13292 0.13407 -0.00305 0.0
O26 O 0.116 0.15977 0.06639 0.0
O27 O 0.09287 0.96571 0.99349 0.0
O28 O 0.09371 0.98841 0.06406 0.0
C29 C 0.1596 0.16575 0.03386 0.0
H30 H 0.85805 0.06832 0.19794 0.0
H31 H 0.13182 0.10097 0.21283 0.0
H32 H 0.19152 0.00122 0.85438 0.0
H33 H 0.92698 0.0607 0.8294 0.0
C34 C 0.37641 0.36045 0.48589 0.0
N35 N 0.48347 0.50503 0.5914 0.0
C36 C 0.40939 0.50305 0.6124 0.0
C37 C 0.41069 0.51196 0.65748 0.0
C38 C 0.48884 0.52382 0.68091 0.0
C39 C 0.56398 0.52564 0.65833 0.0
C40 C 0.5599 0.5157 0.61348 0.0
Zn41 Zn 0.48601 0.49075 0.52567 0.0
C42 C 0.62529 0.37862 0.49456 0.0
N43 N 0.50319 0.4597 0.38879 0.0
C44 C 0.43291 0.45129 0.3617 0.0
C45 C 0.58241 0.46611 0.37345 0.0
C46 C 0.593 0.46746 0.32962 0.0
C47 C 0.52148 0.46185 0.30095 0.0
C48 C 0.44068 0.452 0.31741 0.0
Zn49 Zn 0.49373 0.47235 0.45424 0.0
O50 O 0.39788 0.40079 0.52134 0.0
C51 C 0.35481 0.58448 0.48336 0.0
O52 O 0.40814 0.37508 0.451 0.0
H53 H 0.63754 0.47306 0.39545 0.0
H54 H 0.34937 0.49444 0.5942 0.0
H55 H 0.37055 0.44626 0.37458 0.0
O56 O 0.3837 0.57297 0.52068 0.0
O57 O 0.38854 0.54877 0.45013 0.0
H58 H 0.61821 0.51624 0.59627 0.0
O59 O 0.58017 0.56899 0.45937 0.0
O60 O 0.57213 0.58195 0.52961 0.0
O61 O 0.59722 0.39717 0.45873 0.0
O62 O 0.58974 0.40718 0.52895 0.0
C63 C 0.60203 0.60394 0.4963 0.0
H64 H 0.35127 0.51063 0.67382 0.0
H65 H 0.6256 0.53352 0.6752 0.0
H66 H 0.65634 0.47641 0.31873 0.0
H67 H 0.38385 0.44638 0.29643 0.0
O68 O 0.91675 0.95175 0.39153 0.0
Cd69 Cd 0.92202 0.88563 0.45592 0.0
O70 O 0.04117 0.00425 0.41108 0.0
Cd71 Cd 0.99797 0.00998 0.47661 0.0
O72 O 0.90285 0.09472 0.50317 0.0
C73 C 0.90111 0.15346 0.48257 0.0
O74 O 0.95625 0.15578 0.45227 0.0
C75 C 0.98247 0.98737 0.3824 0.0
C76 C 0.06944 0.79279 0.46095 0.0
O77 O 0.00327 0.76771 0.43828 0.0
O78 O 0.06704 0.8624 0.4806 0.0
O79 O 0.07289 0.01572 0.62743 0.0
Cd80 Cd 0.06678 0.99596 0.54885 0.0
O81 O 0.09565 0.8927 0.63581 0.0
Cd82 Cd 0.05669 0.85213 0.56947 0.0
O83 O 0.9511 0.79168 0.53267 0.0
C84 C 0.87645 0.81655 0.54144 0.0
O85 O 0.86775 0.87806 0.57031 0.0
C86 C 0.08893 0.96366 0.65187 0.0
C87 C 0.1593 0.11165 0.51701 0.0
O88 O 0.08422 0.12489 0.53101 0.0
O89 O 0.19119 0.04314 0.51765 0.0
O90 O 0.47908 0.51048 0.88779 0.0
Cd91 Cd 0.49432 0.51097 0.96604 0.0
O92 O 0.54227 0.62285 0.88788 0.0
Cd93 Cd 0.52011 0.65239 0.95607 0.0
O94 O 0.43029 0.71941 -0.0024 0.0
C95 C 0.35314 0.69788 -0.00365 0.0
O96 O 0.33137 0.63275 0.97226 0.0
C97 C 0.51002 0.56152 0.86722 0.0
C98 C 0.63364 0.41703 0.98542 0.0
O99 O 0.56252 0.38813 0.96989 0.0
O100 O 0.63974 0.49134 0.99257 0.0
O101 O 0.53642 0.58895 0.11627 0.0
Cd102 Cd 0.53176 0.61849 0.04255 0.0
O103 O 0.61151 0.48248 0.09933 0.0
Cd104 Cd 0.6473 0.36341 0.10835 0.0
O105 O 0.53565 0.29045 0.10131 0.0
C106 C 0.50741 0.2686 0.06317 0.0
O107 O 0.55415 0.27983 0.03077 0.0
C108 C 0.57103 0.52726 0.12713 0.0
C109 C 0.63886 0.73916 0.03062 0.0
O110 O 0.56914 0.75248 0.05027 0.0
O111 O 0.65938 0.66835 0.01754 0.0
C112 C 0.27825 0.22394 0.08231 0.0
C113 C 0.24617 0.19864 0.04034 0.0
H114 H 0.38601 0.26413 0.1225 0.0
C115 C 0.30081 0.19667 0.00576 0.0
H116 H 0.23807 0.22571 0.10976 0.0
C117 C 0.38619 0.21846 0.01317 0.0
C118 C 0.41848 0.24213 0.0553 0.0
H119 H 0.2782 0.17676 0.9731 0.0
H120 H 0.42693 0.2163 0.98593 0.0
C121 C 0.36345 0.24515 0.08972 0.0
C122 C 0.25032 0.88089 0.05158 0.0
C123 C 0.16911 0.87643 0.03103 0.0
H124 H 0.37367 0.82671 0.05648 0.0
C125 C 0.1448 0.80794 0.0047 0.0
H126 H 0.27032 0.93371 0.07168 0.0
C127 C 0.20284 0.74652 -0.00347 0.0
C128 C 0.28697 0.7536 0.01364 0.0
H129 H 0.08225 0.8037 0.98851 0.0
H130 H 0.18354 0.69618 0.9742 0.0
C131 C 0.30931 0.81998 0.04263 0.0
C132 C 0.74654 0.93436 0.04672 0.0
C133 C 0.80708 0.92462 0.01465 0.0
H134 H 0.64483 0.88325 0.07647 0.0
C135 C 0.80852 0.85541 0.98592 0.0
H136 H 0.74459 0.9873 0.06931 0.0
C137 C 0.75305 0.79496 0.99078 0.0
C138 C 0.69429 0.80385 0.02378 0.0
H139 H 0.85544 0.84643 0.96127 0.0
H140 H 0.75695 0.74097 0.96915 0.0
C141 C 0.68983 0.87483 0.0509 0.0
C142 C 0.78575 0.24567 0.9723 0.0
C143 C 0.84147 0.26104 0.00861 0.0
H144 H 0.67556 0.28226 0.93729 0.0
C145 C 0.82966 0.32948 0.03724 0.0
H146 H 0.79282 0.19297 0.9499 0.0
C147 C 0.76367 0.38215 0.02915 0.0
C148 C 0.70675 0.36528 0.99335 0.0
H149 H 0.87172 0.34245 0.06549 0.0
H150 H 0.75572 0.43482 0.05141 0.0
C151 C 0.7184 0.29654 0.96514 0.0
C152 C 0.65796 0.72737 0.53567 0.0
C153 C 0.66542 0.66651 0.50177 0.0
H154 H 0.71815 0.82389 0.57402 0.0
C155 C 0.73903 0.66069 0.47752 0.0
H156 H 0.60154 0.73299 0.55475 0.0
C157 C 0.80697 0.71171 0.48921 0.0
C158 C 0.80118 0.77021 0.52465 0.0
H159 H 0.74629 0.61375 0.45144 0.0
H160 H 0.86504 0.70353 0.47157 0.0
C161 C 0.72473 0.77937 0.54665 0.0
C162 C 0.71183 0.27463 0.52653 0.0
C163 C 0.69951 0.32516 0.49503 0.0
H164 H 0.78529 0.17913 0.54713 0.0
C165 C 0.75676 0.32175 0.46154 0.0
H166 H 0.66841 0.27612 0.55265 0.0
C167 C 0.82352 0.26769 0.4587 0.0
C168 C 0.83417 0.21462 0.48891 0.0
H169 H 0.74939 0.36049 0.43702 0.0
H170 H 0.86532 0.2662 0.43191 0.0
C171 C 0.77836 0.21911 0.52326 0.0
C172 C 0.24039 0.31354 0.50993 0.0
C173 C 0.31451 0.29772 0.48663 0.0
H174 H 0.13212 0.26716 0.53678 0.0
C175 C 0.33384 0.22061 0.46987 0.0
H176 H 0.22466 0.37271 0.52332 0.0
C177 C 0.28209 0.15957 0.47865 0.0
C178 C 0.20943 0.1753 0.50341 0.0
H179 H 0.39139 0.20722 0.45225 0.0
H180 H 0.30004 0.10012 0.46703 0.0
C181 C 0.18765 0.2531 0.51769 0.0
C182 C 0.22764 0.62599 0.44105 0.0
C183 C 0.28218 0.63828 0.47801 0.0
H184 H 0.11696 0.66467 0.40702 0.0
C185 C 0.26741 0.70278 0.50896 0.0
H186 H 0.23751 0.57663 0.41667 0.0
C187 C 0.1997 0.75447 0.50281 0.0
C188 C 0.14417 0.74122 0.46622 0.0
H189 H 0.30889 0.71388 0.53757 0.0
H190 H 0.18996 0.80395 0.52708 0.0
C191 C 0.15867 0.67633 0.43551 0.0
C192 C 0.91991 0.0754 0.28162 0.0
C193 C 0.99344 0.0616 0.25726 0.0
H194 H 0.8586 0.06082 0.33994 0.0
C195 C 0.06447 0.02478 0.27561 0.0
H196 H 0.86468 0.10533 0.26956 0.0
C197 C 0.06183 0.00243 0.31683 0.0
C198 C 0.98722 0.01371 0.3399 0.0
H199 H 0.12167 0.01093 0.2579 0.0
H200 H 0.11705 0.9739 0.33005 0.0
C201 C 0.91639 0.05043 0.32215 0.0
C202 C 0.0456 0.07016 0.76201 0.0
C203 C 0.07437 0.01553 0.78895 0.0
H204 H 0.02962 0.09737 0.69743 0.0
C205 C 0.1139 0.94632 0.77082 0.0
H206 H 0.01573 0.12431 0.77534 0.0
C207 C 0.12143 0.93055 0.72628 0.0
C208 C 0.09062 0.98425 0.69913 0.0
H209 H 0.13636 0.90317 0.79096 0.0
H210 H 0.14973 0.8756 0.71306 0.0
C211 C 0.05429 0.05496 0.71751 0.0
C212 C 0.54309 0.59318 0.75166 0.0
C213 C 0.49287 0.53402 0.72864 0.0
H214 H 0.58785 0.64833 0.8134 0.0
C215 C 0.44869 0.4836 0.75148 0.0
H216 H 0.57731 0.63326 0.73487 0.0
C217 C 0.45526 0.49176 0.79649 0.0
C218 C 0.50538 0.5511 0.81955 0.0
H219 H 0.4102 0.43705 0.7345 0.0
H220 H 0.42051 0.45192 0.81319 0.0
C221 C 0.54898 0.60187 0.79663 0.0
C222 C 0.47067 0.51666 0.23389 0.0
C223 C 0.531 0.4723 0.25496 0.0
H224 H 0.43616 0.56836 0.17709 0.0
C225 C 0.60356 0.44344 0.2328 0.0
H226 H 0.41489 0.54113 0.25013 0.0
C227 C 0.61656 0.46043 0.1911 0.0
C228 C 0.5567 0.50565 0.17042 0.0
H229 H 0.65119 0.40875 0.24795 0.0
H230 H 0.67492 0.44047 0.1758 0.0
C231 C 0.48343 0.53315 0.19217 0.0
loop_
_geom_bond_atom_site_label_1
_geom_bond_atom_site_label_2
_geom_bond_distance
_geom_bond_site_symmetry_2
_ccdc_geom_bond_type
C0 O16 1.251 . S
C0 O18 1.254 1_554 S
N1 C2 1.333 1_455 S
N1 C6 1.307 . S
N1 Zn7 2.020 . S
C2 N1 1.333 1_655 S
C2 C3 1.379 . S
C2 H20 0.952 1_545 S
C3 C2 1.379 . S
C3 C4 1.390 1_655 S
C3 H30 0.949 . S
C4 C3 1.390 1_455 S
C4 C5 1.357 . S
C5 C4 1.357 . S
C5 C6 1.370 . S
C5 H31 0.950 . S
C6 N1 1.307 . S
C6 C5 1.370 . S
C6 H24 0.948 . S
Zn7 N1 2.020 . S
Zn7 O16 2.039 1_445 S
Zn7 O22 2.034 1_455 S
Zn7 O26 2.025 . S
Zn7 O28 2.024 1_545 S
C8 O27 1.246 1_554 S
C8 O28 1.249 . S
N9 C10 1.307 1_445 S
N9 C11 1.333 . S
N9 Zn15 2.019 1_455 S
C10 N9 1.307 1_665 S
C10 C14 1.370 . S
C10 H21 0.948 . S
C11 N9 1.333 . S
C11 C12 1.379 . S
C11 H19 0.952 . S
C12 C11 1.379 . S
C12 C13 1.390 1_545 S
C12 H32 0.949 . S
C13 C12 1.390 1_565 S
C13 C14 1.357 1_455 S
C14 C10 1.370 . S
C14 C13 1.357 1_655 S
C14 H33 0.950 . S
Zn15 N9 2.019 1_655 S
Zn15 O18 2.030 1_545 S
Zn15 O23 2.029 . S
Zn15 O25 2.035 1_655 S
Zn15 O27 2.029 1_645 S
O16 C0 1.251 . S
O16 Zn7 2.039 1_665 S
C17 O22 1.246 . S
C17 O23 1.249 1_554 S
O18 C0 1.254 1_556 S
O18 Zn15 2.030 1_565 S
H19 C11 0.952 . S
H20 C2 0.952 1_565 S
H21 C10 0.948 . S
O22 Zn7 2.034 1_655 S
O22 C17 1.246 . S
O23 Zn15 2.029 . S
O23 C17 1.249 1_556 S
H24 C6 0.948 . S
O25 Zn15 2.035 1_455 S
O25 C29 1.251 1_556 S
O26 Zn7 2.025 . S
O26 C29 1.254 . S
O27 C8 1.246 1_556 S
O27 Zn15 2.029 1_465 S
O28 Zn7 2.024 1_565 S
O28 C8 1.249 . S
C29 O25 1.251 1_554 S
C29 O26 1.254 . S
H30 C3 0.949 . S
H31 C5 0.950 . S
H32 C12 0.949 . S
H33 C14 0.950 . S
C34 O50 1.251 . S
C34 O52 1.254 . S
N35 C36 1.333 . S
N35 C40 1.307 . S
N35 Zn41 2.020 . S
C36 N35 1.333 . S
C36 C37 1.379 . S
C36 H54 0.952 . S
C37 C36 1.379 . S
C37 C38 1.390 . S
C37 H64 0.949 . S
C38 C37 1.390 . S
C38 C39 1.357 . S
C39 C38 1.357 . S
C39 C40 1.370 . S
C39 H65 0.950 . S
C40 N35 1.307 . S
C40 C39 1.370 . S
C40 H58 0.948 . S
Zn41 N35 2.020 . S
Zn41 O50 2.039 . S
Zn41 O56 2.034 . S
Zn41 O60 2.025 . S
Zn41 O62 2.024 . S
C42 O61 1.246 . S
C42 O62 1.249 . S
N43 C44 1.307 . S
N43 C45 1.333 . S
N43 Zn49 2.020 . S
C44 N43 1.307 . S
C44 C48 1.370 . S
C44 H55 0.948 . S
C45 N43 1.333 . S
C45 C46 1.379 . S
C45 H53 0.952 . S
C46 C45 1.379 . S
C46 C47 1.390 . S
C46 H66 0.949 . S
C47 C46 1.390 . S
C47 C48 1.357 . S
C48 C44 1.370 . S
C48 C47 1.357 . S
C48 H67 0.950 . S
Zn49 N43 2.020 . S
Zn49 O52 2.025 . S
Zn49 O57 2.024 . S
Zn49 O59 2.039 . S
Zn49 O61 2.034 . S
O50 C34 1.251 . S
O50 Zn41 2.039 . S
C51 O56 1.246 . S
C51 O57 1.249 . S
O52 C34 1.254 . S
O52 Zn49 2.025 . S
H53 C45 0.952 . S
H54 C36 0.952 . S
H55 C44 0.948 . S
O56 Zn41 2.034 . S
O56 C51 1.246 . S
O57 Zn49 2.024 . S
O57 C51 1.249 . S
H58 C40 0.948 . S
O59 Zn49 2.039 . S
O59 C63 1.251 . S
O60 Zn41 2.025 . S
O60 C63 1.254 . S
O61 C42 1.246 . S
O61 Zn49 2.034 . S
O62 Zn41 2.024 . S
O62 C42 1.249 . S
C63 O59 1.251 . S
C63 O60 1.254 . S
H64 C37 0.949 . S
H65 C39 0.950 . S
H66 C46 0.949 . S
H67 C48 0.950 . S
O68 Cd69 2.300 1_565 S
O68 C75 1.275 1_565 S
Cd69 O68 2.300 1_545 S
Cd69 O77 2.381 1_545 S
Cd69 O78 2.378 1_545 S
O70 Cd71 2.385 . S
O70 C75 1.255 . S
Cd71 O70 2.385 . S
Cd71 O72 2.317 1_455 S
O72 Cd71 2.317 1_655 S
O72 C73 1.232 . S
C73 O72 1.232 . S
C73 O74 1.218 . S
O74 C73 1.218 . S
C75 O68 1.275 1_545 S
C75 O70 1.255 . S
C76 O77 1.258 . S
C76 O78 1.256 . S
O77 Cd69 2.381 1_565 S
O77 C76 1.258 . S
O78 Cd69 2.378 1_565 S
O78 C76 1.256 . S
O79 Cd80 2.300 . S
O79 C86 1.275 1_545 S
Cd80 O79 2.300 . S
Cd80 O88 2.381 . S
Cd80 O89 2.378 . S
O81 Cd82 2.385 . S
O81 C86 1.255 . S
Cd82 O81 2.385 . S
Cd82 O83 2.317 1_455 S
O83 Cd82 2.317 1_655 S
O83 C84 1.232 . S
C84 O83 1.232 . S
C84 O85 1.218 . S
O85 C84 1.218 . S
C86 O79 1.275 1_565 S
C86 O81 1.255 . S
C87 O88 1.258 . S
C87 O89 1.256 . S
O88 Cd80 2.381 . S
O88 C87 1.258 . S
O89 Cd80 2.378 . S
O89 C87 1.256 . S
O90 Cd91 2.300 . S
O90 C97 1.275 . S
Cd91 O90 2.300 . S
Cd91 O99 2.381 . S
Cd91 O100 2.378 1_556 S
O92 Cd93 2.385 . S
O92 C97 1.255 . S
Cd93 O92 2.385 . S
Cd93 O94 2.317 1_556 S
O94 Cd93 2.317 1_554 S
O94 C95 1.232 1_554 S
C95 O94 1.232 1_556 S
C95 O96 1.218 . S
O96 C95 1.218 . S
C97 O90 1.275 . S
C97 O92 1.255 . S
C98 O99 1.258 1_554 S
C98 O100 1.256 . S
O99 Cd91 2.381 . S
O99 C98 1.258 1_556 S
O100 Cd91 2.378 1_554 S
O100 C98 1.256 . S
O101 Cd102 2.300 . S
O101 C108 1.275 . S
Cd102 O101 2.300 . S
Cd102 O110 2.381 . S
Cd102 O111 2.378 1_554 S
O103 Cd104 2.385 . S
O103 C108 1.255 . S
Cd104 O103 2.385 . S
Cd104 O105 2.317 . S
O105 Cd104 2.317 . S
O105 C106 1.232 . S
C106 O105 1.232 . S
C106 O107 1.218 . S
O107 C106 1.218 . S
C108 O101 1.275 . S
C108 O103 1.255 . S
C109 O110 1.258 . S
C109 O111 1.256 1_554 S
O110 Cd102 2.381 . S
O110 C109 1.258 . S
O111 Cd102 2.378 1_556 S
O111 C109 1.256 1_556 S
C112 C113 1.387 . S
C112 H116 0.950 . S
C112 C121 1.390 . S
C113 C112 1.387 . S
C113 C115 1.387 1_554 S
H114 C121 0.950 . S
C115 C113 1.387 1_556 S
C115 C117 1.390 . S
C115 H119 0.950 . S
H116 C112 0.950 . S
C117 C115 1.390 . S
C117 C118 1.387 1_556 S
C117 H120 0.950 . S
C118 C117 1.387 1_554 S
C118 C121 1.387 . S
H119 C115 0.950 . S
H120 C117 0.950 . S
C121 C112 1.390 . S
C121 H114 0.950 . S
C121 C118 1.387 . S
C122 C123 1.387 . S
C122 H126 0.950 . S
C122 C131 1.390 . S
C123 C122 1.387 . S
C123 C125 1.387 1_554 S
H124 C131 0.950 . S
C125 C123 1.387 1_556 S
C125 C127 1.390 . S
C125 H129 0.950 . S
H126 C122 0.950 . S
C127 C125 1.390 . S
C127 C128 1.387 1_556 S
C127 H130 0.950 . S
C128 C127 1.387 1_554 S
C128 C131 1.387 . S
H129 C125 0.950 . S
H130 C127 0.950 . S
C131 C122 1.390 . S
C131 H124 0.950 . S
C131 C128 1.387 . S
C132 C133 1.387 . S
C132 H136 0.950 . S
C132 C141 1.390 . S
C133 C132 1.387 . S
C133 C135 1.387 1_554 S
H134 C141 0.950 . S
C135 C133 1.387 1_556 S
C135 C137 1.390 . S
C135 H139 0.950 . S
H136 C132 0.950 . S
C137 C135 1.390 . S
C137 C138 1.387 1_556 S
C137 H140 0.950 . S
C138 C137 1.387 1_554 S
C138 C141 1.387 . S
H139 C135 0.950 . S
H140 C137 0.950 . S
C141 C132 1.390 . S
C141 H134 0.950 . S
C141 C138 1.387 . S
C142 C143 1.387 1_556 S
C142 H146 0.950 . S
C142 C151 1.390 . S
C143 C142 1.387 1_554 S
C143 C145 1.387 . S
H144 C151 0.950 . S
C145 C143 1.387 . S
C145 C147 1.390 . S
C145 H149 0.950 . S
H146 C142 0.950 . S
C147 C145 1.390 . S
C147 C148 1.387 . S
C147 H150 0.950 . S
C148 C147 1.387 . S
C148 C151 1.387 1_554 S
H149 C145 0.950 . S
H150 C147 0.950 . S
C151 C142 1.390 . S
C151 H144 0.950 . S
C151 C148 1.387 1_556 S
C152 C153 1.387 . S
C152 H156 0.950 . S
C152 C161 1.390 . S
C153 C152 1.387 . S
C153 C155 1.387 . S
H154 C161 0.950 . S
C155 C153 1.387 . S
C155 C157 1.390 . S
C155 H159 0.950 . S
H156 C152 0.950 . S
C157 C155 1.390 . S
C157 C158 1.387 . S
C157 H160 0.950 . S
C158 C157 1.387 . S
C158 C161 1.387 . S
H159 C155 0.950 . S
H160 C157 0.950 . S
C161 C152 1.390 . S
C161 H154 0.950 . S
C161 C158 1.387 . S
C162 C163 1.387 . S
C162 H166 0.950 . S
C162 C171 1.390 . S
C163 C162 1.387 . S
C163 C165 1.387 . S
H164 C171 0.950 . S
C165 C163 1.387 . S
C165 C167 1.390 . S
C165 H169 0.950 . S
H166 C162 0.950 . S
C167 C165 1.390 . S
C167 C168 1.387 . S
C167 H170 0.950 . S
C168 C167 1.387 . S
C168 C171 1.387 . S
H169 C165 0.950 . S
H170 C167 0.950 . S
C171 C162 1.390 . S
C171 H164 0.950 . S
C171 C168 1.387 . S
C172 C173 1.387 . S
C172 H176 0.950 . S
C172 C181 1.390 . S
C173 C172 1.387 . S
C173 C175 1.387 . S
H174 C181 0.950 . S
C175 C173 1.387 . S
C175 C177 1.390 . S
C175 H179 0.950 . S
H176 C172 0.950 . S
C177 C175 1.390 . S
C177 C178 1.387 . S
C177 H180 0.950 . S
C178 C177 1.387 . S
C178 C181 1.387 . S
H179 C175 0.950 . S
H180 C177 0.950 . S
C181 C172 1.390 . S
C181 H174 0.950 . S
C181 C178 1.387 . S
C182 C183 1.387 . S
C182 H186 0.950 . S
C182 C191 1.390 . S
C183 C182 1.387 . S
C183 C185 1.387 . S
H184 C191 0.950 . S
C185 C183 1.387 . S
C185 C187 1.390 . S
C185 H189 0.950 . S
H186 C182 0.950 . S
C187 C185 1.390 . S
C187 C188 1.387 . S
C187 H190 0.950 . S
C188 C187 1.387 . S
C188 C191 1.387 . S
H189 C185 0.950 . S
H190 C187 0.950 . S
C191 C182 1.390 . S
C191 H184 0.950 . S
C191 C188 1.387 . S
C192 C193 1.398 . S
C192 H196 0.950 . S
C192 C201 1.390 . S
C193 C192 1.398 . S
C193 C195 1.378 1_655 S
H194 C201 0.950 . S
C195 C193 1.378 1_455 S
C195 C197 1.390 . S
C195 H199 0.950 1_545 S
H196 C192 0.950 . S
C197 C195 1.390 . S
C197 C198 1.387 1_455 S
C197 H200 0.950 1_545 S
C198 C197 1.387 1_655 S
C198 C201 1.387 . S
H199 C195 0.950 1_565 S
H200 C197 0.950 1_565 S
C201 C192 1.390 . S
C201 H194 0.950 . S
C201 C198 1.387 . S
C202 C203 1.387 1_545 S
C202 H206 0.950 . S
C202 C211 1.390 . S
C203 C202 1.387 1_565 S
C203 C205 1.387 . S
H204 C211 0.950 . S
C205 C203 1.387 . S
C205 C207 1.390 . S
C205 H209 0.950 1_455 S
H206 C202 0.950 . S
C207 C205 1.390 . S
C207 C208 1.387 . S
C207 H210 0.950 . S
C208 C207 1.387 . S
C208 C211 1.387 1_565 S
H209 C205 0.950 1_655 S
H210 C207 0.950 . S
C211 C202 1.390 . S
C211 H204 0.950 . S
C211 C208 1.387 1_545 S
C212 C213 1.387 . S
C212 H216 0.950 . S
C212 C221 1.390 . S
C213 C212 1.387 . S
C213 C215 1.387 . S
H214 C221 0.950 . S
C215 C213 1.387 . S
C215 C217 1.390 . S
C215 H219 0.950 . S
H216 C212 0.950 . S
C217 C215 1.390 . S
C217 C218 1.387 . S
C217 H220 0.950 . S
C218 C217 1.387 . S
C218 C221 1.387 . S
H219 C215 0.950 . S
H220 C217 0.950 . S
C221 C212 1.390 . S
C221 H214 0.950 . S
C221 C218 1.387 . S
C222 C223 1.387 . S
C222 H226 0.950 . S
C222 C231 1.390 . S
C223 C222 1.387 . S
C223 C225 1.387 . S
H224 C231 0.950 . S
C225 C223 1.387 . S
C225 C227 1.390 . S
C225 H229 0.950 . S
H226 C222 0.950 . S
C227 C225 1.390 . S
C227 C228 1.387 . S
C227 H230 0.950 . S
C228 C227 1.387 . S
C228 C231 1.387 . S
H229 C225 0.950 . S
H230 C227 0.950 . S
C231 C222 1.390 . S
C231 H224 0.950 . S
C231 C228 1.387 . S
C118 C106 1.291 . S
C113 C29 1.518 . S
C123 C8 1.510 . S
C128 C95 1.281 1_554 S
C133 C0 1.495 . S
C138 C109 1.454 . S
C143 C17 1.495 . S
C148 C98 1.443 . S
C153 C63 1.518 . S
C158 C84 1.291 . S
C163 C42 1.510 . S
C168 C73 1.282 . S
C178 C87 1.453 . S
C173 C34 1.495 . S
C188 C76 1.443 . S
C183 C51 1.495 . S
C193 C4 1.511 1_655 S
C198 C75 1.456 1_655 S
C203 C13 1.502 . S
C208 C86 1.451 . S
C218 C97 1.457 . S
C213 C38 1.513 . S
C223 C47 1.502 . S
C228 C108 1.451 . S
