# Generated by pormake.
# Topology bcu-b, (8,8)-cn, num edge types: 1
# Building blocks:
#     Node 0, Type 0, BuildingBlock: TAGTUT_clean_sbu_3, # of connection points: 8
#     Node 1, Type 1, BuildingBlock: GIZVER_clean_sbu_0, # of connection points: 8
#     Edge 2, Type (0, 1), BuildingBlock: AJUNOK_clean_linker_0, # of connection points: 2
#     Edge 3, Type (0, 1), BuildingBlock: AJUNOK_clean_linker_0, # of connection points: 2
#     Edge 4, Type (0, 1), BuildingBlock: AJUNOK_clean_linker_0, # of connection points: 2
#     Edge 5, Type (0, 1), BuildingBlock: AJUNOK_clean_linker_0, # of connection points: 2
#     Edge 6, Type (0, 1), BuildingBlock: AJUNOK_clean_linker_0, # of connection points: 2
#     Edge 7, Type (0, 1), BuildingBlock: AJUNOK_clean_linker_0, # of connection points: 2
#     Edge 8, Type (0, 1), BuildingBlock: AJUNOK_clean_linker_0, # of connection points: 2
#     Edge 9, Type (0, 1), BuildingBlock: AJUNOK_clean_linker_0, # of connection points: 2
# Relax obj value: 0.084
# Max RMSD: 0.157
# Mean RMSD: 0.153
data_MOF--net-bcu-b--node1-TAGTUT_clean_sbu_3--node2-GIZVER_clean_sbu_0--edge1-AJUNOK_clean_linker_0
_symmetry_space_group_name_H-M    P1
_symmetry_Int_Tables_number       1
_symmetry_cell_setting            triclinic
loop_
_symmetry_equiv_pos_as_xyz
'x, y, z'
_cell_length_a     16.291141
_cell_length_b     17.813725
_cell_length_c     13.607955
_cell_angle_alpha  89.601676
_cell_angle_beta   91.007453
_cell_angle_gamma 112.94138
loop_
_atom_site_label
_atom_site_type_symbol
_atom_site_fract_x
_atom_site_fract_y
_atom_site_fract_z
_atom_type_partial_charge
C0 C 0.15057 0.14284 0.12966 0.0
C1 C 0.22662 0.88895 0.11626 0.0
C2 C 0.15296 0.87263 0.80953 0.0
Mg3 Mg 0.99337 0.18373 0.01022 0.0
Mg4 Mg 0.80625 0.02805 0.97042 0.0
O5 O 0.92897 0.07595 0.94583 0.0
Mg6 Mg 1.0029 0.0141 0.98523 0.0
O7 O 0.08362 0.95906 0.02522 0.0
Mg8 Mg 0.20157 0.03138 0.97068 0.0
Mg9 Mg 0.05016 0.84872 -0.00157 0.0
C10 C 0.83775 0.88537 0.85966 0.0
O11 O 0.89574 0.92293 0.08807 0.0
O12 O 0.903 0.22533 0.90485 0.0
O13 O 0.91779 0.80775 0.05453 0.0
O14 O 0.89136 0.16646 0.13003 0.0
O15 O 0.77872 0.11215 0.87818 0.0
O16 O 0.77059 0.05269 0.11726 0.0
O17 O 0.1182 0.09246 0.88296 0.0
O18 O 0.09723 0.20857 0.89337 0.0
C19 C 0.13959 0.16761 0.86011 0.0
C20 C 0.82621 0.18752 0.86265 0.0
O21 O 0.92343 0.91933 0.86789 0.0
O22 O 0.26241 0.95958 0.07537 0.0
O23 O 0.78442 0.91096 0.90391 0.0
O24 O 0.19844 0.94369 0.84385 0.0
O25 O 0.14759 0.83839 0.09566 0.0
O26 O 0.08273 0.8253 0.85243 0.0
O27 O 0.06887 0.11544 0.10086 0.0
O28 O 0.20653 0.11675 0.09432 0.0
C29 C 0.81554 0.1195 0.16172 0.0
C30 C 0.87363 0.84504 0.09446 0.0
Co31 Co 0.56886 0.35877 0.43141 0.0
Co32 Co 0.60499 0.43658 0.59641 0.0
Co33 Co 0.50155 0.51479 0.48116 0.0
O34 O 0.59433 0.46919 0.4714 0.0
H35 H 0.65115 0.508 0.44987 0.0
O36 O 0.40869 0.56071 0.48752 0.0
Co37 Co 0.43035 0.66677 0.53911 0.0
Co38 Co 0.40034 0.60382 0.36523 0.0
H39 H 0.35142 0.52033 0.50595 0.0
O40 O 0.71106 0.44156 0.63366 0.0
O41 O 0.59334 0.33226 0.57136 0.0
O42 O 0.51851 0.42677 0.69513 0.0
O43 O 0.4256 0.42971 0.57709 0.0
O44 O 0.56951 0.58571 0.59076 0.0
O45 O 0.43691 0.76136 0.58965 0.0
O46 O 0.3144 0.64929 0.55505 0.0
O47 O 0.55704 0.69799 0.53455 0.0
O48 O 0.57747 0.59984 0.38591 0.0
O49 O 0.48754 0.61179 0.26826 0.0
O50 O 0.42802 0.71012 0.40395 0.0
O51 O 0.30283 0.62391 0.32638 0.0
C52 C 0.63924 0.29236 0.38015 0.0
C53 C 0.4039 0.36451 0.38581 0.0
C54 C 0.43988 0.40592 0.66193 0.0
C55 C 0.67192 0.36383 0.61603 0.0
C56 C 0.35044 0.7235 0.58932 0.0
C57 C 0.59638 0.66292 0.58841 0.0
C58 C 0.565 0.62426 0.30068 0.0
C59 C 0.35564 0.69711 0.35246 0.0
O60 O 0.55375 0.25913 0.39273 0.0
O61 O 0.6819 0.36961 0.40217 0.0
O62 O 0.43385 0.44161 0.37426 0.0
O63 O 0.44282 0.33213 0.4455 0.0
C64 C 0.2078 0.17775 0.29795 0.0
C65 C 0.18515 0.20367 0.20747 0.0
C66 C 0.27556 0.23137 0.35826 0.0
C67 C 0.32304 0.31271 0.32976 0.0
H68 H 0.17859 0.11382 0.31797 0.0
H69 H 0.294 0.20769 0.42487 0.0
S70 S 0.28198 0.41146 0.10301 0.0
N71 N 0.20958 0.31606 0.09527 0.0
N72 N 0.3361 0.41824 0.2085 0.0
C73 C 0.29554 0.34087 0.24298 0.0
C74 C 0.22667 0.2859 0.18177 0.0
C75 C 0.82033 0.23496 0.2699 0.0
C76 C 0.77347 0.15415 0.23634 0.0
C77 C 0.77755 0.27804 0.31964 0.0
C78 C 0.68599 0.24226 0.33916 0.0
H79 H 0.89007 0.26738 0.25301 0.0
H80 H 0.81611 0.34098 0.33944 0.0
S81 S 0.53577 0.02743 0.28423 0.0
N82 N 0.63239 0.03693 0.2382 0.0
N83 N 0.55218 0.11681 0.33296 0.0
C84 C 0.63981 0.15926 0.3136 0.0
C85 C 0.68342 0.11551 0.26223 0.0
C86 C 0.71347 0.79975 0.14217 0.0
C87 C 0.79652 0.79362 0.15247 0.0
C88 C 0.63773 0.74294 0.18783 0.0
C89 C 0.64328 0.67923 0.24622 0.0
H90 H 0.7065 0.84705 0.09652 0.0
H91 H 0.57481 0.74972 0.17852 0.0
S92 S 0.84682 0.63912 0.29788 0.0
N93 N 0.88063 0.72045 0.22654 0.0
N94 N 0.73906 0.61453 0.31202 0.0
C95 C 0.72646 0.67364 0.25783 0.0
C96 C 0.80289 0.73069 0.21111 0.0
C97 C 0.35741 0.86056 0.17641 0.0
C98 C 0.27381 0.86299 0.19371 0.0
C99 C 0.38897 0.81241 0.23592 0.0
C100 C 0.33713 0.76551 0.31301 0.0
H101 H 0.39478 0.8901 0.11219 0.0
H102 H 0.45027 0.80636 0.21631 0.0
S103 S 0.12195 0.76323 0.39824 0.0
N104 N 0.1469 0.82509 0.30244 0.0
N105 N 0.20477 0.73223 0.41088 0.0
C106 C 0.25774 0.77347 0.33608 0.0
C107 C 0.22649 0.82318 0.27718 0.0
C108 C 0.15982 0.75362 0.71701 0.0
C109 C 0.19343 0.83856 0.73303 0.0
C110 C 0.20898 0.71721 0.66603 0.0
C111 C 0.29391 0.76413 0.62933 0.0
H112 H 0.09748 0.71406 0.74918 0.0
H113 H 0.18219 0.65137 0.66012 0.0
S114 S 0.40386 0.99002 0.63194 0.0
N115 N 0.31106 0.96947 0.69331 0.0
N116 N 0.40318 0.90087 0.5985 0.0
C117 C 0.32482 0.84948 0.63701 0.0
C118 C 0.27458 0.8867 0.68829 0.0
C119 C 0.20573 0.25566 0.71818 0.0
C120 C 0.21799 0.21369 0.8012 0.0
C121 C 0.27771 0.31775 0.67439 0.0
C122 C 0.36498 0.34161 0.71304 0.0
H123 H 0.13918 0.24242 0.68905 0.0
H124 H 0.26423 0.34822 0.6107 0.0
S125 S 0.43178 0.24953 0.93052 0.0
N126 N 0.32285 0.19891 0.92051 0.0
N127 N 0.45925 0.31574 0.83904 0.0
C128 C 0.37827 0.29869 0.79545 0.0
C129 C 0.30456 0.23467 0.83925 0.0
C130 C 0.69751 0.19812 0.76986 0.0
C131 C 0.78985 0.23048 0.79193 0.0
C132 C 0.65991 0.23811 0.70569 0.0
C133 C 0.71338 0.31182 0.6614 0.0
H134 H 0.65312 0.14277 0.80501 0.0
H135 H 0.58813 0.21368 0.69549 0.0
S136 S 0.95989 0.41508 0.68078 0.0
N137 N 0.93471 0.33552 0.75455 0.0
N138 N 0.86405 0.41072 0.63364 0.0
C139 C 0.80631 0.34201 0.67739 0.0
C140 C 0.84456 0.30153 0.74302 0.0
C141 C 0.79325 0.84226 0.68871 0.0
C142 C 0.79616 0.82049 0.78767 0.0
C143 C 0.73059 0.78925 0.62294 0.0
C144 C 0.67019 0.71246 0.65404 0.0
H145 H 0.83486 0.90297 0.66388 0.0
H146 H 0.72706 0.80968 0.54838 0.0
S147 S 0.65626 0.62528 0.90462 0.0
N148 N 0.73723 0.71672 0.91296 0.0
N149 N 0.62149 0.61521 0.78879 0.0
C150 C 0.67688 0.68793 0.75133 0.0
C151 C 0.7394 0.74263 0.81852 0.0
loop_
_geom_bond_atom_site_label_1
_geom_bond_atom_site_label_2
_geom_bond_distance
_geom_bond_site_symmetry_2
_ccdc_geom_bond_type
C0 O27 1.312 . S
C0 O28 1.208 . S
C1 O22 1.331 . S
C1 O25 1.244 . S
C2 O24 1.264 . S
C2 O26 1.273 . S
Mg3 O5 1.936 . S
Mg3 O12 2.084 . S
Mg3 O14 2.026 1_556 S
Mg3 O18 2.028 1_655 S
Mg3 O27 2.289 1_656 S
Mg4 O5 1.963 . S
Mg4 O15 1.942 . S
Mg4 O16 1.955 1_556 S
Mg4 O23 1.986 1_545 S
O5 Mg3 1.936 . S
O5 Mg4 1.963 . S
O5 Mg6 1.913 1_556 S
Mg6 O5 1.913 1_554 S
Mg6 O7 1.917 1_645 S
Mg6 O11 2.019 1_545 S
Mg6 O17 2.109 1_654 S
Mg6 O21 2.007 1_544 S
Mg6 O27 2.119 1_655 S
O7 Mg6 1.917 1_465 S
O7 Mg8 1.936 1_565 S
O7 Mg9 1.963 . S
Mg8 O7 1.936 1_545 S
Mg8 O17 2.291 1_554 S
Mg8 O22 2.081 1_545 S
Mg8 O24 2.023 1_544 S
Mg8 O28 2.031 . S
Mg9 O7 1.963 . S
Mg9 O13 1.986 1_455 S
Mg9 O25 1.942 . S
Mg9 O26 1.955 1_554 S
C10 O21 1.191 . S
C10 O23 1.307 . S
O11 Mg6 2.019 1_565 S
O11 C30 1.191 . S
O12 Mg3 2.084 . S
O12 C20 1.331 . S
O13 Mg9 1.986 1_655 S
O13 C30 1.307 . S
O14 Mg3 2.026 1_554 S
O14 C29 1.264 . S
O15 Mg4 1.942 . S
O15 C20 1.244 . S
O16 Mg4 1.955 1_554 S
O16 C29 1.273 . S
O17 Mg6 2.109 1_456 S
O17 Mg8 2.291 1_556 S
O17 C19 1.312 . S
O18 Mg3 2.028 1_455 S
O18 C19 1.208 . S
C19 O17 1.312 . S
C19 O18 1.208 . S
C20 O12 1.331 . S
C20 O15 1.244 . S
O21 Mg6 2.007 1_566 S
O21 C10 1.191 . S
O22 C1 1.331 . S
O22 Mg8 2.081 1_565 S
O23 Mg4 1.986 1_565 S
O23 C10 1.307 . S
O24 C2 1.264 . S
O24 Mg8 2.023 1_566 S
O25 C1 1.244 . S
O25 Mg9 1.942 . S
O26 C2 1.273 . S
O26 Mg9 1.955 1_556 S
O27 C0 1.312 . S
O27 Mg3 2.289 1_454 S
O27 Mg6 2.119 1_455 S
O28 C0 1.208 . S
O28 Mg8 2.031 . S
C29 O14 1.264 . S
C29 O16 1.273 . S
C30 O11 1.191 . S
C30 O13 1.307 . S
Co31 O34 2.042 . S
Co31 O41 2.264 . S
Co31 O60 2.286 . S
Co31 O61 2.069 . S
Co31 O63 2.015 . S
Co32 O34 2.122 . S
Co32 O40 2.073 . S
Co32 O41 2.327 . S
Co32 O42 1.976 . S
Co33 O34 2.087 . S
Co33 O36 2.087 . S
Co33 O43 2.111 . S
Co33 O44 2.143 . S
Co33 O48 2.111 . S
Co33 O62 2.143 . S
O34 Co31 2.042 . S
O34 Co32 2.122 . S
O34 Co33 2.087 . S
O34 H35 0.980 . S
H35 O34 0.980 . S
O36 Co33 2.087 . S
O36 Co37 2.042 . S
O36 Co38 2.122 . S
O36 H39 0.980 . S
Co37 O36 2.042 . S
Co37 O45 2.286 . S
Co37 O46 2.069 . S
Co37 O47 2.015 . S
Co37 O50 2.264 . S
Co38 O36 2.122 . S
Co38 O49 1.976 . S
Co38 O50 2.327 . S
Co38 O51 2.073 . S
H39 O36 0.980 . S
O40 Co32 2.073 . S
O40 C55 1.245 . S
O41 Co31 2.264 . S
O41 Co32 2.327 . S
O41 C55 1.257 . S
O42 Co32 1.976 . S
O42 C54 1.251 . S
O43 Co33 2.111 . S
O43 C54 1.274 . S
O44 Co33 2.143 . S
O44 C57 1.246 . S
O45 Co37 2.286 . S
O45 C56 1.259 . S
O46 Co37 2.069 . S
O46 C56 1.289 . S
O47 Co37 2.015 . S
O47 C57 1.257 . S
O48 Co33 2.111 . S
O48 C58 1.274 . S
O49 Co38 1.976 . S
O49 C58 1.251 . S
O50 Co37 2.264 . S
O50 Co38 2.327 . S
O50 C59 1.257 . S
O51 Co38 2.073 . S
O51 C59 1.245 . S
C52 O60 1.259 . S
C52 O61 1.289 . S
C53 O62 1.246 . S
C53 O63 1.257 . S
C54 O42 1.251 . S
C54 O43 1.274 . S
C55 O40 1.245 . S
C55 O41 1.257 . S
C56 O45 1.259 . S
C56 O46 1.289 . S
C57 O44 1.246 . S
C57 O47 1.257 . S
C58 O48 1.274 . S
C58 O49 1.251 . S
C59 O50 1.257 . S
C59 O51 1.245 . S
O60 Co31 2.286 . S
O60 C52 1.259 . S
O61 Co31 2.069 . S
O61 C52 1.289 . S
O62 Co33 2.143 . S
O62 C53 1.246 . S
O63 Co31 2.015 . S
O63 C53 1.257 . S
C64 C65 1.369 . S
C64 C66 1.419 . S
C64 H68 0.930 . S
C65 C64 1.369 . S
C65 C74 1.429 . S
C66 C64 1.419 . S
C66 C67 1.363 . S
C66 H69 0.929 . S
C67 C66 1.363 . S
C67 C73 1.428 . S
H68 C64 0.930 . S
H69 C66 0.929 . S
S70 N71 1.613 . S
S70 N72 1.610 . S
N71 S70 1.613 . S
N71 C74 1.350 . S
N72 S70 1.610 . S
N72 C73 1.351 . S
C73 C67 1.428 . S
C73 N72 1.351 . S
C73 C74 1.434 . S
C74 C65 1.429 . S
C74 N71 1.350 . S
C74 C73 1.434 . S
C75 C76 1.369 . S
C75 C77 1.419 . S
C75 H79 0.930 . S
C76 C75 1.369 . S
C76 C85 1.429 . S
C77 C75 1.419 . S
C77 C78 1.363 . S
C77 H80 0.929 . S
C78 C77 1.363 . S
C78 C84 1.428 . S
H79 C75 0.930 . S
H80 C77 0.929 . S
S81 N82 1.613 . S
S81 N83 1.610 . S
N82 S81 1.613 . S
N82 C85 1.350 . S
N83 S81 1.610 . S
N83 C84 1.351 . S
C84 C78 1.428 . S
C84 N83 1.351 . S
C84 C85 1.434 . S
C85 C76 1.429 . S
C85 N82 1.350 . S
C85 C84 1.434 . S
C86 C87 1.369 . S
C86 C88 1.419 . S
C86 H90 0.930 . S
C87 C86 1.369 . S
C87 C96 1.429 . S
C88 C86 1.419 . S
C88 C89 1.363 . S
C88 H91 0.929 . S
C89 C88 1.363 . S
C89 C95 1.428 . S
H90 C86 0.930 . S
H91 C88 0.929 . S
S92 N93 1.613 . S
S92 N94 1.610 . S
N93 S92 1.613 . S
N93 C96 1.350 . S
N94 S92 1.610 . S
N94 C95 1.351 . S
C95 C89 1.428 . S
C95 N94 1.351 . S
C95 C96 1.434 . S
C96 C87 1.429 . S
C96 N93 1.350 . S
C96 C95 1.434 . S
C97 C98 1.369 . S
C97 C99 1.419 . S
C97 H101 0.930 . S
C98 C97 1.369 . S
C98 C107 1.429 . S
C99 C97 1.419 . S
C99 C100 1.363 . S
C99 H102 0.929 . S
C100 C99 1.363 . S
C100 C106 1.428 . S
H101 C97 0.930 . S
H102 C99 0.929 . S
S103 N104 1.613 . S
S103 N105 1.610 . S
N104 S103 1.613 . S
N104 C107 1.350 . S
N105 S103 1.610 . S
N105 C106 1.351 . S
C106 C100 1.428 . S
C106 N105 1.351 . S
C106 C107 1.434 . S
C107 C98 1.429 . S
C107 N104 1.350 . S
C107 C106 1.434 . S
C108 C109 1.369 . S
C108 C110 1.419 . S
C108 H112 0.930 . S
C109 C108 1.369 . S
C109 C118 1.429 . S
C110 C108 1.419 . S
C110 C111 1.363 . S
C110 H113 0.929 . S
C111 C110 1.363 . S
C111 C117 1.428 . S
H112 C108 0.930 . S
H113 C110 0.929 . S
S114 N115 1.613 . S
S114 N116 1.610 . S
N115 S114 1.613 . S
N115 C118 1.350 . S
N116 S114 1.610 . S
N116 C117 1.351 . S
C117 C111 1.428 . S
C117 N116 1.351 . S
C117 C118 1.434 . S
C118 C109 1.429 . S
C118 N115 1.350 . S
C118 C117 1.434 . S
C119 C120 1.369 . S
C119 C121 1.419 . S
C119 H123 0.930 . S
C120 C119 1.369 . S
C120 C129 1.429 . S
C121 C119 1.419 . S
C121 C122 1.363 . S
C121 H124 0.929 . S
C122 C121 1.363 . S
C122 C128 1.428 . S
H123 C119 0.930 . S
H124 C121 0.929 . S
S125 N126 1.613 . S
S125 N127 1.610 . S
N126 S125 1.613 . S
N126 C129 1.350 . S
N127 S125 1.610 . S
N127 C128 1.351 . S
C128 C122 1.428 . S
C128 N127 1.351 . S
C128 C129 1.434 . S
C129 C120 1.429 . S
C129 N126 1.350 . S
C129 C128 1.434 . S
C130 C131 1.369 . S
C130 C132 1.419 . S
C130 H134 0.930 . S
C131 C130 1.369 . S
C131 C140 1.429 . S
C132 C130 1.419 . S
C132 C133 1.363 . S
C132 H135 0.929 . S
C133 C132 1.363 . S
C133 C139 1.428 . S
H134 C130 0.930 . S
H135 C132 0.929 . S
S136 N137 1.613 . S
S136 N138 1.610 . S
N137 S136 1.613 . S
N137 C140 1.350 . S
N138 S136 1.610 . S
N138 C139 1.351 . S
C139 C133 1.428 . S
C139 N138 1.351 . S
C139 C140 1.434 . S
C140 C131 1.429 . S
C140 N137 1.350 . S
C140 C139 1.434 . S
C141 C142 1.369 . S
C141 C143 1.419 . S
C141 H145 0.930 . S
C142 C141 1.369 . S
C142 C151 1.429 . S
C143 C141 1.419 . S
C143 C144 1.363 . S
C143 H146 0.929 . S
C144 C143 1.363 . S
C144 C150 1.428 . S
H145 C141 0.930 . S
H146 C143 0.929 . S
S147 N148 1.613 . S
S147 N149 1.610 . S
N148 S147 1.613 . S
N148 C151 1.350 . S
N149 S147 1.610 . S
N149 C150 1.351 . S
C150 C144 1.428 . S
C150 N149 1.351 . S
C150 C151 1.434 . S
C151 C142 1.429 . S
C151 N148 1.350 . S
C151 C150 1.434 . S
C65 C0 1.431 . S
C67 C53 1.455 . S
C76 C29 1.612 . S
C78 C52 1.646 . S
C87 C30 1.396 . S
C89 C58 1.342 . S
C98 C1 1.498 . S
C100 C59 1.452 . S
C109 C2 1.615 . S
C111 C56 1.652 . S
C122 C54 1.373 . S
C120 C19 1.414 . S
C131 C20 1.490 . S
C133 C55 1.446 . S
C144 C57 1.410 . S
C142 C10 1.422 . S
