# Generated by pormake.
# Topology scu, (8,4)-cn, num edge types: 1
# Building blocks:
#     Node 0, Type 0, BuildingBlock: GIZVER_clean_sbu_0, # of connection points: 8
#     Node 1, Type 1, BuildingBlock: ESEHIV_clean_sbu_0, # of connection points: 4
#     Node 2, Type 1, BuildingBlock: ESEHIV_clean_sbu_0, # of connection points: 4
#     Edge 3, Type (0, 1), BuildingBlock: XIVTED_clean_linker_0, # of connection points: 2
#     Edge 4, Type (0, 1), BuildingBlock: XIVTED_clean_linker_0, # of connection points: 2
#     Edge 5, Type (0, 1), BuildingBlock: XIVTED_clean_linker_0, # of connection points: 2
#     Edge 6, Type (0, 1), BuildingBlock: XIVTED_clean_linker_0, # of connection points: 2
#     Edge 7, Type (0, 1), BuildingBlock: XIVTED_clean_linker_0, # of connection points: 2
#     Edge 8, Type (0, 1), BuildingBlock: XIVTED_clean_linker_0, # of connection points: 2
#     Edge 9, Type (0, 1), BuildingBlock: XIVTED_clean_linker_0, # of connection points: 2
#     Edge 10, Type (0, 1), BuildingBlock: XIVTED_clean_linker_0, # of connection points: 2
# Relax obj value: 0.031
# Max RMSD: 0.139
# Mean RMSD: 0.115
data_MOF--net-scu--node1-GIZVER_clean_sbu_0--node2-ESEHIV_clean_sbu_0--edge1-XIVTED_clean_linker_0
_symmetry_space_group_name_H-M    P1
_symmetry_Int_Tables_number       1
_symmetry_cell_setting            triclinic
loop_
_symmetry_equiv_pos_as_xyz
'x, y, z'
_cell_length_a     25.017271
_cell_length_b     25.608724
_cell_length_c     22.250628
_cell_angle_alpha  102.96559
_cell_angle_beta   85.386669
_cell_angle_gamma 112.81816
loop_
_atom_site_label
_atom_site_type_symbol
_atom_site_fract_x
_atom_site_fract_y
_atom_site_fract_z
_atom_type_partial_charge
Co0 Co 0.02687 0.98872 0.14609 0.0
Co1 Co 0.10831 0.06795 0.0983 0.0
Co2 Co 0.99526 0.03768 1.02605 0.0
O3 O 0.04145 1.00581 0.06523 0.0
H4 H 0.0517 0.97706 0.03608 0.0
O5 O 0.95143 0.07243 0.98745 0.0
Co6 Co 0.98127 0.1016 0.91398 0.0
Co7 Co 0.88954 1.02001 0.93951 0.0
H8 H 0.93897 0.099 1.01749 0.0
O9 O 0.17391 0.05769 0.11285 0.0
O10 O 0.09961 0.05638 0.17842 0.0
O11 O 0.11484 0.14614 0.10152 0.0
O12 O 0.02024 0.11466 0.08712 0.0
O13 O 0.06284 0.0651 0.97075 0.0
O14 O 1.00699 0.13271 0.84901 0.0
O15 O 0.96043 0.16429 0.9312 0.0
O16 O 1.01036 0.04249 0.88682 0.0
O17 O 0.96762 0.95951 0.96578 0.0
O18 O 0.88646 0.94226 0.91578 0.0
O19 O 0.90624 0.05238 0.87057 0.0
O20 O 0.82779 0.04003 0.93207 0.0
C21 C 0.04735 0.93819 0.19318 0.0
C22 C 0.93152 1.0178 0.139 0.0
C23 C 0.06831 0.15525 0.10645 0.0
C24 C 0.1523 0.05761 0.16795 0.0
C25 C 0.98628 0.17056 0.87827 0.0
C26 C 0.05598 0.04685 0.91254 0.0
C27 C 0.92581 0.92642 0.9281 0.0
C28 C 0.85617 0.05687 0.88383 0.0
O29 O 0.01621 0.96779 0.21836 0.0
O30 O 0.06623 0.94083 0.13699 0.0
O31 O 0.92813 1.0081 0.08037 0.0
O32 O 0.98038 0.03453 0.16587 0.0
Cu33 Cu 0.06776 0.57313 0.53467 0.0
N34 N 0.10248 0.54707 0.58695 0.0
N35 N 0.10285 0.49195 0.65186 0.0
C36 C 0.07317 0.4983 0.60787 0.0
C37 C 0.15328 0.53863 0.65881 0.0
C38 C 0.15306 0.57256 0.61843 0.0
O39 O 0.04071 0.50975 0.4625 0.0
C40 C 0.0338 0.63466 0.63361 0.0
O41 O 0.09018 0.65304 0.64077 0.0
H42 H 0.02938 0.46956 0.59326 0.0
H43 H 0.18612 0.61405 0.61451 0.0
N44 N 0.11647 0.63879 0.50529 0.0
N45 N 0.1374 0.71067 0.45477 0.0
C46 C 0.09536 0.66954 0.47931 0.0
C47 C 0.1743 0.66143 0.49739 0.0
C48 C 0.18733 0.70575 0.4659 0.0
C49 C 0.08275 0.49921 0.43344 0.0
O50 O 0.13554 0.53045 0.45504 0.0
H51 H 0.04943 0.65986 0.4759 0.0
H52 H 0.20458 0.64553 0.51133 0.0
O53 O 1.01022 0.59669 0.58548 0.0
H54 H 0.18737 0.54802 0.69135 0.0
H55 H 0.22998 0.73167 0.45157 0.0
Cu56 Cu 0.48139 1.00219 0.52729 0.0
N57 N 0.42821 0.96009 0.57969 0.0
N58 N 0.35547 0.94218 0.64702 0.0
C59 C 0.38405 0.9744 0.60577 0.0
C60 C 0.38308 0.90634 0.64775 0.0
C61 C 0.42805 0.91739 0.60579 0.0
O62 O 0.44162 0.03801 0.48845 0.0
C63 C 0.58204 0.032 0.58976 0.0
O64 O 0.56792 0.97605 0.56953 0.0
H65 H 0.37454 1.00965 0.5965 0.0
H66 H 0.45934 0.89703 0.59645 0.0
N67 N 0.50809 0.95765 0.4632 0.0
N68 N 0.57048 0.93968 0.39204 0.0
C69 C 0.55996 0.97956 0.43673 0.0
C70 C 0.48418 0.90181 0.4337 0.0
C71 C 0.52272 0.89061 0.38935 0.0
C72 C 0.39291 1.00325 0.46377 0.0
O73 O 0.37464 0.9482 0.46598 0.0
H74 H 0.58956 1.02424 0.45027 0.0
H75 H 0.4421 0.87148 0.44393 0.0
O76 O 0.54883 0.05558 0.57767 0.0
H77 H 0.37194 0.87498 0.67682 0.0
H78 H 0.51664 0.84946 0.35856 0.0
H79 H 0.16151 0.25625 0.14434 0.0
H80 H 0.98218 0.40718 0.38576 0.0
H81 H 0.97493 0.18066 0.15672 0.0
H82 H 0.16613 0.48438 0.3541 0.0
H83 H 0.97576 0.32626 0.29845 0.0
H84 H 0.16168 0.34291 0.21722 0.0
C85 C 0.12047 0.25808 0.16189 0.0
C86 C 0.06822 0.21087 0.14449 0.0
C87 C 0.01734 0.3613 0.31047 0.0
C88 C 0.06801 0.31015 0.22916 0.0
C89 C 0.02096 0.40748 0.36017 0.0
C90 C 0.07484 0.45233 0.37777 0.0
C91 C 0.06797 0.36028 0.27842 0.0
C92 C 0.12372 0.45049 0.34294 0.0
C93 C 0.12053 0.30766 0.2037 0.0
C94 C 0.01631 0.21601 0.16876 0.0
N95 N 0.11914 0.40527 0.29549 0.0
N96 N 0.01755 0.26445 0.21039 0.0
H97 H 0.81907 0.96501 0.09735 0.0
H98 H 0.6796 1.00971 0.43106 0.0
H99 H 0.92105 0.04545 0.26482 0.0
H100 H 0.58111 0.89033 0.27248 0.0
H101 H 0.76781 0.02911 0.36943 0.0
H102 H 0.73081 0.94382 0.15908 0.0
C103 C 0.82298 0.97854 0.14709 0.0
C104 C 0.87772 1.00716 0.17591 0.0
C105 C 0.72701 0.99851 0.34805 0.0
C106 C 0.77659 0.98284 0.24681 0.0
C107 C 0.67659 0.98766 0.38312 0.0
C108 C 0.62292 0.94862 0.35665 0.0
C109 C 0.72383 0.97065 0.28571 0.0
C110 C 0.62166 0.92048 0.29463 0.0
C111 C 0.7725 0.96608 0.18228 0.0
C112 C 0.8799 1.0233 0.24056 0.0
N113 N 0.67135 0.9324 0.26106 0.0
N114 N 0.83009 1.01108 0.27378 0.0
H115 H 0.13089 0.89063 0.16975 0.0
H116 H 0.05368 0.75458 0.47185 0.0
H117 H 1.00114 0.91118 0.30247 0.0
H118 H 0.20108 0.75236 0.3583 0.0
H119 H 0.0341 0.81136 0.40837 0.0
H120 H 0.15734 0.83874 0.23551 0.0
C121 C 0.10771 0.88389 0.21237 0.0
C122 C 0.06335 0.90487 0.2303 0.0
C123 C 0.07096 0.7988 0.39727 0.0
C124 C 0.09355 0.84598 0.30576 0.0
C125 C 0.082 0.76613 0.43348 0.0
C126 C 0.12882 0.74828 0.42016 0.0
C127 C 0.10664 0.81361 0.34669 0.0
C128 C 0.16469 0.76544 0.37039 0.0
C129 C 0.12309 0.85465 0.25007 0.0
C130 C 0.03542 0.89567 0.2865 0.0
N131 N 0.15258 0.79675 0.33509 0.0
N132 N 0.05079 0.86684 0.32189 0.0
H133 H 0.26871 0.08311 0.16668 0.0
H134 H 0.27563 0.95824 0.45373 0.0
H135 H 0.11918 0.03728 0.28452 0.0
H136 H 0.42848 0.09035 0.39915 0.0
H137 H 0.21645 0.98044 0.38854 0.0
H138 H 0.32776 0.08021 0.247 0.0
C139 C 0.24818 0.07242 0.20944 0.0
C140 C 0.18851 0.05929 0.21834 0.0
C141 C 0.26279 1.00523 0.39167 0.0
C142 C 0.25607 0.05553 0.31019 0.0
C143 C 0.2966 0.99248 0.42855 0.0
C144 C 0.357 1.02242 0.43143 0.0
C145 C 0.28978 0.04722 0.35627 0.0
C146 C 0.38203 0.06647 0.3982 0.0
C147 C 0.2821 0.07121 0.25538 0.0
C148 C 0.16468 0.04665 0.27516 0.0
N149 N 0.34836 0.07686 0.36095 0.0
N150 N 0.19834 0.04401 0.3186 0.0
H151 H 0.85969 0.85456 0.8269 0.0
H152 H 0.05602 0.66589 0.75558 0.0
H153 H 0.99675 0.87188 0.94534 0.0
H154 H 0.9397 0.66286 0.62087 0.0
H155 H 0.01838 0.72604 0.83325 0.0
H156 H 0.87349 0.77122 0.75913 0.0
C157 C 0.89201 0.84034 0.83935 0.0
C158 C 0.92749 0.8708 0.89185 0.0
C159 C 1.00036 0.7118 0.78702 0.0
C160 C 0.94341 0.77536 0.81414 0.0
C161 C 0.0217 0.67722 0.74265 0.0
C162 C 1.0013 0.65993 0.68163 0.0
C163 C 0.9587 0.73017 0.77032 0.0
C164 C 0.95648 0.67532 0.66749 0.0
C165 C 0.89994 0.79283 0.80039 0.0
C166 C 0.96865 0.85023 0.90531 0.0
N167 N 0.93723 0.7105 0.7114 0.0
N168 N 0.97568 0.80418 0.86653 0.0
H169 H 0.14896 0.03056 0.95195 0.0
H170 H 0.26793 0.96493 0.61131 0.0
H171 H 0.06004 1.01679 0.78715 0.0
H172 H 0.33478 0.93506 0.76739 0.0
H173 H 0.19253 0.98597 0.67656 0.0
H174 H 0.21909 0.99816 0.8872 0.0
C175 C 0.14417 1.02079 0.90225 0.0
C176 C 0.09874 1.02683 0.87494 0.0
C177 C 0.22328 0.97438 0.69668 0.0
C178 C 0.17866 0.98977 0.80083 0.0
C179 C 0.26638 0.96253 0.65943 0.0
C180 C 0.30766 0.94854 0.68415 0.0
C181 C 0.22174 0.9731 0.75959 0.0
C182 C 0.30347 0.94538 0.74662 0.0
C183 C 0.18402 1.00201 0.86538 0.0
C184 C 0.09439 1.01302 0.81034 0.0
N185 N 0.26161 0.95825 0.78251 0.0
N186 N 0.13396 0.99555 0.77563 0.0
H187 H 1.01017 0.28507 0.93349 0.0
H188 H 0.03276 0.38029 0.60994 0.0
H189 H 0.9783 0.16645 0.75682 0.0
H190 H 0.12553 0.49921 0.77189 0.0
H191 H 0.9963 0.30326 0.66819 0.0
H192 H 0.03569 0.36617 0.87996 0.0
C193 C 1.00737 0.27608 0.88365 0.0
C194 C 0.9923 0.21918 0.8494 0.0
C195 C 0.02458 0.34621 0.69112 0.0
C196 C 0.02131 0.31092 0.7883 0.0
C197 C 0.04526 0.39022 0.6579 0.0
C198 C 0.08245 0.44619 0.68598 0.0
C199 C 0.04055 0.35812 0.7533 0.0
C200 C 0.09759 0.45647 0.74827 0.0
C201 C 0.02247 0.32224 0.85317 0.0
C202 C 0.98999 0.20975 0.78491 0.0
N203 N 0.07645 0.41287 0.77998 0.0
N204 N 1.00433 0.25501 0.75654 0.0
H205 H 0.88688 0.06901 0.76498 0.0
H206 H 0.59358 0.10433 0.70323 0.0
H207 H 0.76256 0.0882 0.90557 0.0
H208 H 0.68811 0.02912 0.56412 0.0
H209 H 0.67304 0.13171 0.7769 0.0
H210 H 0.83155 0.08676 0.69126 0.0
C211 C 0.84848 0.07779 0.78059 0.0
C212 C 0.82845 0.07564 0.84106 0.0
C213 C 0.67703 0.11068 0.72972 0.0
C214 C 0.76533 0.0963 0.75724 0.0
C215 C 0.63207 0.09565 0.6877 0.0
C216 C 0.63454 0.06421 0.62804 0.0
C217 C 0.72449 0.09436 0.71137 0.0
C218 C 0.68473 0.05306 0.61008 0.0
C219 C 0.81696 0.08794 0.73853 0.0
C220 C 0.77881 0.08809 0.85897 0.0
N221 N 0.72748 0.06751 0.65177 0.0
N222 N 0.74855 0.0972 0.81707 0.0
loop_
_geom_bond_atom_site_label_1
_geom_bond_atom_site_label_2
_geom_bond_distance
_geom_bond_site_symmetry_2
_ccdc_geom_bond_type
Co0 O3 2.042 . S
Co0 O10 2.264 1_565 S
Co0 O29 2.286 1_455 S
Co0 O30 2.069 . S
Co0 O32 2.015 1_455 S
Co1 O3 2.122 1_545 S
Co1 O9 2.073 . S
Co1 O10 2.327 . S
Co1 O11 1.976 . S
Co2 O3 2.087 1_545 S
Co2 O5 2.087 1_454 S
Co2 O12 2.111 . S
Co2 O13 2.143 1_554 S
Co2 O17 2.111 1_444 S
Co2 O31 2.143 1_445 S
O3 Co0 2.042 . S
O3 Co1 2.122 1_565 S
O3 Co2 2.087 1_565 S
O3 H4 0.980 . S
H4 O3 0.980 . S
O5 Co2 2.087 1_656 S
O5 Co6 2.042 1_655 S
O5 Co7 2.122 1_545 S
O5 H8 0.980 . S
Co6 O5 2.042 1_455 S
Co6 O14 2.286 . S
Co6 O15 2.069 1_455 S
Co6 O16 2.015 . S
Co6 O19 2.264 1_455 S
Co7 O5 2.122 1_565 S
Co7 O18 1.976 . S
Co7 O19 2.327 1_565 S
Co7 O20 2.073 . S
H8 O5 0.980 . S
O9 Co1 2.073 . S
O9 C24 1.245 . S
O10 Co0 2.264 1_545 S
O10 Co1 2.327 . S
O10 C24 1.257 . S
O11 Co1 1.976 . S
O11 C23 1.251 . S
O12 Co2 2.111 . S
O12 C23 1.274 . S
O13 Co2 2.143 1_556 S
O13 C26 1.246 . S
O14 Co6 2.286 . S
O14 C25 1.259 1_455 S
O15 Co6 2.069 1_655 S
O15 C25 1.289 . S
O16 Co6 2.015 . S
O16 C26 1.257 . S
O17 Co2 2.111 1_666 S
O17 C27 1.274 . S
O18 Co7 1.976 . S
O18 C27 1.251 . S
O19 Co6 2.264 1_655 S
O19 Co7 2.327 1_545 S
O19 C28 1.257 . S
O20 Co7 2.073 . S
O20 C28 1.245 1_565 S
C21 O29 1.259 1_455 S
C21 O30 1.289 . S
C22 O31 1.246 . S
C22 O32 1.257 . S
C23 O11 1.251 . S
C23 O12 1.274 . S
C24 O9 1.245 . S
C24 O10 1.257 . S
C25 O14 1.259 1_655 S
C25 O15 1.289 . S
C26 O13 1.246 . S
C26 O16 1.257 . S
C27 O17 1.274 . S
C27 O18 1.251 . S
C28 O19 1.257 . S
C28 O20 1.245 1_545 S
O29 Co0 2.286 1_655 S
O29 C21 1.259 1_655 S
O30 Co0 2.069 . S
O30 C21 1.289 . S
O31 Co2 2.143 1_665 S
O31 C22 1.246 . S
O32 Co0 2.015 1_655 S
O32 C22 1.257 . S
Cu33 N34 1.999 . S
Cu33 O39 1.974 . S
Cu33 N44 1.985 . S
Cu33 O53 1.959 . S
N34 Cu33 1.999 . S
N34 C36 1.263 . S
N34 C38 1.389 . S
N35 C36 1.358 . S
N35 C37 1.400 . S
C36 N34 1.263 . S
C36 N35 1.358 . S
C36 H42 0.930 1_655 S
C37 N35 1.400 . S
C37 C38 1.351 . S
C37 H54 0.930 . S
C38 N34 1.389 . S
C38 C37 1.351 . S
C38 H43 0.930 . S
O39 Cu33 1.974 . S
O39 C49 1.282 1_655 S
C40 O41 1.261 . S
C40 O53 1.251 1_455 S
O41 C40 1.261 . S
H42 C36 0.930 1_455 S
H43 C38 0.930 . S
N44 Cu33 1.985 . S
N44 C46 1.335 . S
N44 C47 1.390 1_655 S
N45 C46 1.345 . S
N45 C48 1.336 1_655 S
C46 N44 1.335 . S
C46 N45 1.345 . S
C46 H51 0.930 . S
C47 N44 1.390 1_455 S
C47 C48 1.346 . S
C47 H52 0.930 . S
C48 N45 1.336 1_455 S
C48 C47 1.346 . S
C48 H55 0.929 . S
C49 O39 1.282 1_455 S
C49 O50 1.216 . S
O50 C49 1.216 . S
H51 C46 0.930 . S
H52 C47 0.930 . S
O53 Cu33 1.959 . S
O53 C40 1.251 1_655 S
H54 C37 0.930 . S
H55 C48 0.929 . S
Cu56 N57 1.999 . S
Cu56 O62 1.974 . S
Cu56 N67 1.985 . S
Cu56 O76 1.959 . S
N57 Cu56 1.999 . S
N57 C59 1.263 . S
N57 C61 1.389 . S
N58 C59 1.358 . S
N58 C60 1.400 . S
C59 N57 1.263 . S
C59 N58 1.358 . S
C59 H65 0.928 1_545 S
C60 N58 1.400 . S
C60 C61 1.351 . S
C60 H77 0.930 . S
C61 N57 1.389 . S
C61 C60 1.351 . S
C61 H66 0.930 . S
O62 Cu56 1.974 . S
O62 C72 1.282 1_545 S
C63 O64 1.261 . S
C63 O76 1.251 1_565 S
O64 C63 1.261 . S
H65 C59 0.928 1_565 S
H66 C61 0.930 . S
N67 Cu56 1.985 . S
N67 C69 1.335 . S
N67 C70 1.390 . S
N68 C69 1.345 . S
N68 C71 1.336 . S
C69 N67 1.335 . S
C69 N68 1.345 . S
C69 H74 0.930 . S
C70 N67 1.390 . S
C70 C71 1.346 . S
C70 H75 0.930 1_545 S
C71 N68 1.336 . S
C71 C70 1.346 . S
C71 H78 0.929 1_545 S
C72 O62 1.282 1_565 S
C72 O73 1.216 . S
O73 C72 1.216 . S
H74 C69 0.930 . S
H75 C70 0.930 1_565 S
O76 Cu56 1.959 . S
O76 C63 1.251 1_545 S
H77 C60 0.930 . S
H78 C71 0.929 1_565 S
H79 C85 0.930 . S
H80 C89 0.930 . S
H81 C94 0.929 . S
H82 C92 0.929 . S
H83 C87 0.929 . S
H84 C93 0.929 . S
C85 H79 0.930 . S
C85 C86 1.367 . S
C85 C93 1.378 . S
C86 C85 1.367 . S
C86 C94 1.433 1_455 S
C87 H83 0.929 . S
C87 C89 1.378 . S
C87 C91 1.350 1_655 S
C88 C91 1.463 . S
C88 C93 1.350 . S
C88 N96 1.427 1_455 S
C89 H80 0.930 . S
C89 C87 1.378 . S
C89 C90 1.367 1_655 S
C90 C89 1.367 1_455 S
C90 C92 1.433 . S
C91 C87 1.350 1_455 S
C91 C88 1.463 . S
C91 N95 1.427 . S
C92 H82 0.929 . S
C92 C90 1.433 . S
C92 N95 1.384 . S
C93 H84 0.929 . S
C93 C85 1.378 . S
C93 C88 1.350 . S
C94 H81 0.929 . S
C94 C86 1.433 1_655 S
C94 N96 1.384 . S
N95 C91 1.427 . S
N95 C92 1.384 . S
N96 C88 1.427 1_655 S
N96 C94 1.384 . S
H97 C103 0.930 . S
H98 C107 0.930 . S
H99 C112 0.929 . S
H100 C110 0.929 . S
H101 C105 0.929 . S
H102 C111 0.929 . S
C103 H97 0.930 . S
C103 C104 1.367 . S
C103 C111 1.378 . S
C104 C103 1.367 . S
C104 C112 1.433 1_545 S
C105 H101 0.929 . S
C105 C107 1.378 . S
C105 C109 1.350 1_565 S
C106 C109 1.463 . S
C106 C111 1.350 . S
C106 N114 1.427 1_545 S
C107 H98 0.930 . S
C107 C105 1.378 . S
C107 C108 1.367 1_565 S
C108 C107 1.367 1_545 S
C108 C110 1.433 . S
C109 C105 1.350 1_545 S
C109 C106 1.463 . S
C109 N113 1.427 . S
C110 H100 0.929 . S
C110 C108 1.433 . S
C110 N113 1.384 . S
C111 H102 0.929 . S
C111 C103 1.378 . S
C111 C106 1.350 . S
C112 H99 0.929 . S
C112 C104 1.433 1_565 S
C112 N114 1.384 . S
N113 C109 1.427 . S
N113 C110 1.384 . S
N114 C106 1.427 1_565 S
N114 C112 1.384 . S
H115 C121 0.930 . S
H116 C125 0.930 . S
H117 C130 0.929 . S
H118 C128 0.929 . S
H119 C123 0.929 . S
H120 C129 0.929 . S
C121 H115 0.930 . S
C121 C122 1.367 . S
C121 C129 1.378 . S
C122 C121 1.367 . S
C122 C130 1.433 . S
C123 H119 0.929 . S
C123 C125 1.378 . S
C123 C127 1.350 1_655 S
C124 C127 1.463 . S
C124 C129 1.350 . S
C124 N132 1.427 . S
C125 H116 0.930 . S
C125 C123 1.378 . S
C125 C126 1.367 . S
C126 C125 1.367 . S
C126 C128 1.433 1_655 S
C127 C123 1.350 1_455 S
C127 C124 1.463 . S
C127 N131 1.427 . S
C128 H118 0.929 . S
C128 C126 1.433 1_455 S
C128 N131 1.384 . S
C129 H120 0.929 . S
C129 C121 1.378 . S
C129 C124 1.350 . S
C130 H117 0.929 . S
C130 C122 1.433 . S
C130 N132 1.384 . S
N131 C127 1.427 . S
N131 C128 1.384 . S
N132 C124 1.427 . S
N132 C130 1.384 . S
H133 C139 0.930 . S
H134 C143 0.930 . S
H135 C148 0.929 . S
H136 C146 0.929 . S
H137 C141 0.929 . S
H138 C147 0.929 . S
C139 H133 0.930 . S
C139 C140 1.367 . S
C139 C147 1.378 . S
C140 C139 1.367 . S
C140 C148 1.433 1_565 S
C141 H137 0.929 . S
C141 C143 1.378 . S
C141 C145 1.350 1_545 S
C142 C145 1.463 . S
C142 C147 1.350 . S
C142 N150 1.427 1_565 S
C143 H134 0.930 . S
C143 C141 1.378 . S
C143 C144 1.367 1_545 S
C144 C143 1.367 1_565 S
C144 C146 1.433 . S
C145 C141 1.350 1_565 S
C145 C142 1.463 . S
C145 N149 1.427 . S
C146 H136 0.929 . S
C146 C144 1.433 . S
C146 N149 1.384 . S
C147 H138 0.929 . S
C147 C139 1.378 . S
C147 C142 1.350 . S
C148 H135 0.929 . S
C148 C140 1.433 1_545 S
C148 N150 1.384 . S
N149 C145 1.427 . S
N149 C146 1.384 . S
N150 C142 1.427 1_545 S
N150 C148 1.384 . S
H151 C157 0.930 . S
H152 C161 0.930 . S
H153 C166 0.929 . S
H154 C164 0.929 . S
H155 C159 0.929 . S
H156 C165 0.929 . S
C157 H151 0.930 . S
C157 C158 1.367 . S
C157 C165 1.378 . S
C158 C157 1.367 . S
C158 C166 1.433 1_455 S
C159 H155 0.929 . S
C159 C161 1.378 . S
C159 C163 1.350 1_655 S
C160 C163 1.463 . S
C160 C165 1.350 . S
C160 N168 1.427 1_455 S
C161 H152 0.930 . S
C161 C159 1.378 . S
C161 C162 1.367 1_655 S
C162 C161 1.367 1_455 S
C162 C164 1.433 . S
C163 C159 1.350 1_455 S
C163 C160 1.463 . S
C163 N167 1.427 . S
C164 H154 0.929 . S
C164 C162 1.433 . S
C164 N167 1.384 . S
C165 H156 0.929 . S
C165 C157 1.378 . S
C165 C160 1.350 . S
C166 H153 0.929 . S
C166 C158 1.433 1_655 S
C166 N168 1.384 . S
N167 C163 1.427 . S
N167 C164 1.384 . S
N168 C160 1.427 1_655 S
N168 C166 1.384 . S
H169 C175 0.930 . S
H170 C179 0.930 . S
H171 C184 0.929 . S
H172 C182 0.929 . S
H173 C177 0.929 . S
H174 C183 0.929 . S
C175 H169 0.930 . S
C175 C176 1.367 . S
C175 C183 1.378 . S
C176 C175 1.367 . S
C176 C184 1.433 1_545 S
C177 H173 0.929 . S
C177 C179 1.378 . S
C177 C181 1.350 1_565 S
C178 C181 1.463 . S
C178 C183 1.350 . S
C178 N186 1.427 1_545 S
C179 H170 0.930 . S
C179 C177 1.378 . S
C179 C180 1.367 1_565 S
C180 C179 1.367 1_545 S
C180 C182 1.433 . S
C181 C177 1.350 1_545 S
C181 C178 1.463 . S
C181 N185 1.427 . S
C182 H172 0.929 . S
C182 C180 1.433 . S
C182 N185 1.384 . S
C183 H174 0.929 . S
C183 C175 1.378 . S
C183 C178 1.350 . S
C184 H171 0.929 . S
C184 C176 1.433 1_565 S
C184 N186 1.384 . S
N185 C181 1.427 . S
N185 C182 1.384 . S
N186 C178 1.427 1_565 S
N186 C184 1.384 . S
H187 C193 0.930 . S
H188 C197 0.930 . S
H189 C202 0.929 . S
H190 C200 0.929 . S
H191 C195 0.929 . S
H192 C201 0.929 . S
C193 H187 0.930 . S
C193 C194 1.367 . S
C193 C201 1.378 . S
C194 C193 1.367 . S
C194 C202 1.433 1_655 S
C195 H191 0.929 . S
C195 C197 1.378 . S
C195 C199 1.350 1_455 S
C196 C199 1.463 . S
C196 C201 1.350 . S
C196 N204 1.427 1_655 S
C197 H188 0.930 . S
C197 C195 1.378 . S
C197 C198 1.367 1_455 S
C198 C197 1.367 1_655 S
C198 C200 1.433 . S
C199 C195 1.350 1_655 S
C199 C196 1.463 . S
C199 N203 1.427 . S
C200 H190 0.929 . S
C200 C198 1.433 . S
C200 N203 1.384 . S
C201 H192 0.929 . S
C201 C193 1.378 . S
C201 C196 1.350 . S
C202 H189 0.929 . S
C202 C194 1.433 1_455 S
C202 N204 1.384 . S
N203 C199 1.427 . S
N203 C200 1.384 . S
N204 C196 1.427 1_455 S
N204 C202 1.384 . S
H205 C211 0.930 . S
H206 C215 0.930 . S
H207 C220 0.936 . S
H208 C218 0.929 . S
H209 C213 0.929 . S
H210 C219 0.929 . S
C211 H205 0.930 . S
C211 C212 1.367 . S
C211 C219 1.378 . S
C212 C211 1.367 . S
C212 C220 1.431 1_545 S
C213 H209 0.929 . S
C213 C215 1.378 . S
C213 C217 1.350 1_565 S
C214 C217 1.463 . S
C214 C219 1.350 . S
C214 N222 1.427 1_545 S
C215 H206 0.930 . S
C215 C213 1.378 . S
C215 C216 1.378 . S
C216 C215 1.378 . S
C216 C218 1.430 1_565 S
C217 C213 1.350 1_545 S
C217 C214 1.463 . S
C217 N221 1.427 . S
C218 H208 0.929 . S
C218 C216 1.430 1_545 S
C218 N221 1.384 . S
C219 H210 0.929 . S
C219 C211 1.378 . S
C219 C214 1.350 . S
C220 H207 0.936 . S
C220 C212 1.431 1_565 S
C220 N222 1.378 . S
N221 C217 1.427 . S
N221 C218 1.384 . S
N222 C214 1.427 1_565 S
N222 C220 1.378 . S
C86 C23 1.365 . S
C90 C49 1.452 . S
C104 C22 1.410 1_545 S
C108 N68 1.401 . S
C122 C21 1.684 . S
C126 N45 1.656 . S
C140 C24 1.579 1_565 S
C144 C72 1.622 . S
C158 C27 1.434 1_455 S
C162 C40 1.497 . S
C176 C26 1.416 . S
C180 N58 1.434 . S
C198 N35 1.673 . S
C194 C25 1.705 . S
C212 C28 1.611 . S
C216 C63 1.669 . S
