# Generated by pormake.
# Topology pts, (4,4)-cn, num edge types: 1
# Building blocks:
#     Node 0, Type 0, BuildingBlock: NAWXER_clean_sbu_0, # of connection points: 4
#     Node 1, Type 0, BuildingBlock: NAWXER_clean_sbu_0, # of connection points: 4
#     Node 2, Type 1, BuildingBlock: AZAVOO_clean_sbu_0, # of connection points: 4
#     Node 3, Type 1, BuildingBlock: AZAVOO_clean_sbu_0, # of connection points: 4
#     Edge 4, Type (0, 1), BuildingBlock: OJICUG_clean_linker_0, # of connection points: 2
#     Edge 5, Type (0, 1), BuildingBlock: OJICUG_clean_linker_0, # of connection points: 2
#     Edge 6, Type (0, 1), BuildingBlock: OJICUG_clean_linker_0, # of connection points: 2
#     Edge 7, Type (0, 1), BuildingBlock: OJICUG_clean_linker_0, # of connection points: 2
#     Edge 8, Type (0, 1), BuildingBlock: OJICUG_clean_linker_0, # of connection points: 2
#     Edge 9, Type (0, 1), BuildingBlock: OJICUG_clean_linker_0, # of connection points: 2
#     Edge 10, Type (0, 1), BuildingBlock: OJICUG_clean_linker_0, # of connection points: 2
#     Edge 11, Type (0, 1), BuildingBlock: OJICUG_clean_linker_0, # of connection points: 2
# Relax obj value: 0.010
# Max RMSD: 0.056
# Mean RMSD: 0.045
data_MOF--net-pts--node1-NAWXER_clean_sbu_0--node2-AZAVOO_clean_sbu_0--edge1-OJICUG_clean_linker_0
_symmetry_space_group_name_H-M    P1
_symmetry_Int_Tables_number       1
_symmetry_cell_setting            triclinic
loop_
_symmetry_equiv_pos_as_xyz
'x, y, z'
_cell_length_a     16.346137
_cell_length_b     17.856242
_cell_length_c     26.807024
_cell_angle_alpha  89.980624
_cell_angle_beta   96.316832
_cell_angle_gamma 90.023706
loop_
_atom_site_label
_atom_site_type_symbol
_atom_site_fract_x
_atom_site_fract_y
_atom_site_fract_z
_atom_type_partial_charge
C0 C 0.46067 0.95736 0.95381 0.0
C1 C 0.68768 0.95745 0.08929 0.0
O2 O 0.49788 0.89958 0.97263 0.0
Zn3 Zn 0.57417 0.95195 0.02155 0.0
O4 O 0.48357 0.02274 0.96915 0.0
Zn5 Zn 0.5743 0.07363 0.02145 0.0
O6 O 0.64353 0.12503 0.9764 0.0
O7 O 0.65475 0.00189 0.97474 0.0
O8 O 0.66492 0.02281 0.07383 0.0
O9 O 0.65034 0.89966 0.07058 0.0
O10 O 0.49365 0.00215 0.06824 0.0
O11 O 0.5052 0.12528 0.06641 0.0
C12 C 0.67637 0.06641 0.96015 0.0
C13 C 0.47218 0.06675 0.08272 0.0
C14 C 1.00319 0.59455 0.4562 0.0
C15 C 0.03021 0.40015 0.58712 0.0
O16 O 0.94288 0.56952 0.47763 0.0
Zn17 Zn 1.00697 0.49839 0.52249 0.0
O18 O 0.07615 0.57146 0.46968 0.0
Zn19 Zn 0.1419 0.49844 0.52044 0.0
O20 O 0.18738 0.42803 0.47425 0.0
O21 O 0.0519 0.42323 0.47143 0.0
O22 O 0.09697 0.4232 0.5715 0.0
O23 O 0.96149 0.42789 0.56868 0.0
O24 O 0.0727 0.5714 0.57325 0.0
O25 O 0.20598 0.56959 0.5653 0.0
C26 C 0.11866 0.40025 0.4558 0.0
C27 C 0.14567 0.59453 0.58673 0.0
Mg28 Mg 0.13416 0.96519 0.30604 0.0
O29 O 1.01244 0.97057 0.25351 0.0
O30 O 0.90896 0.96288 0.30154 0.0
Mg31 Mg 0.96228 0.96799 0.38363 0.0
C32 C 0.93579 0.96541 0.25865 0.0
C33 C 0.25435 0.05168 0.23804 0.0
O34 O 0.26269 0.09907 0.27571 0.0
O35 O 0.12574 0.08749 0.32808 0.0
O36 O 0.02018 0.08423 0.37446 0.0
O37 O 0.12308 0.84013 0.30587 0.0
O38 O 0.07254 0.91291 0.36144 0.0
C39 C 0.07679 0.11972 0.35504 0.0
C40 C 0.07995 0.84686 0.34338 0.0
O41 O 0.20739 -0.00508 0.24005 0.0
Mg42 Mg 1.01445 0.9649 0.73682 0.0
O43 O 0.13605 0.9703 0.78945 0.0
O44 O 0.23966 0.96273 0.74152 0.0
Mg45 Mg 0.18655 0.9679 0.6594 0.0
C46 C 0.21272 0.96519 0.78438 0.0
C47 C 0.89445 0.05142 0.80491 0.0
O48 O 0.88664 0.09924 0.76746 0.0
O49 O 0.02297 0.08724 0.71479 0.0
O50 O 0.12865 0.0841 0.66851 0.0
O51 O 0.02552 0.83985 0.73696 0.0
O52 O 0.07621 0.91274 0.68147 0.0
C53 C 0.07199 0.11953 0.68789 0.0
C54 C 0.06875 0.84667 0.6995 0.0
O55 O 0.94102 -0.00554 0.80274 0.0
C56 C 0.4082 0.12806 0.15385 0.0
C57 C 0.40984 0.06989 0.11877 0.0
H58 H 0.35794 0.16779 0.21964 0.0
C59 C 0.35533 0.00927 0.12092 0.0
H60 H 0.44963 0.17531 0.15315 0.0
C61 C 0.30295 0.00497 0.15849 0.0
C62 C 0.30407 0.0609 0.19531 0.0
H63 H 0.35443 0.96385 0.09406 0.0
H64 H 0.26342 0.95642 0.15949 0.0
C65 C 0.35601 0.1234 0.19202 0.0
C66 C 0.96754 0.29353 0.63194 0.0
C67 C 0.03636 0.33656 0.62285 0.0
H68 H 0.92509 0.19016 0.66121 0.0
C69 C 0.11513 0.31282 0.6434 0.0
H70 H 0.90617 0.31044 0.6168 0.0
C71 C 0.12591 0.24418 0.66777 0.0
C72 C 0.0581 0.19841 0.67336 0.0
H73 H 0.1696 0.34514 0.63807 0.0
H74 H 0.18782 0.22522 0.68013 0.0
C75 C 0.97839 0.22492 0.65742 0.0
C76 C 0.74835 0.90671 0.17193 0.0
C77 C 0.75574 0.95177 0.12986 0.0
H78 H 0.79925 0.87742 0.24653 0.0
C79 C 0.82484 -0.00146 0.12926 0.0
H80 H 0.69513 0.87092 0.17338 0.0
C81 C 0.88515 0.00113 0.17046 0.0
C82 C 0.87572 0.95898 0.21359 0.0
H83 H 0.83147 0.03403 0.09715 0.0
H84 H 0.93738 0.03824 0.16937 0.0
C85 C 0.80733 0.91112 0.21381 0.0
C86 C 0.17586 0.72683 0.60959 0.0
C87 C 0.15388 0.65489 0.62409 0.0
H88 H 0.16459 0.84443 0.62151 0.0
C89 C 0.11497 0.64607 0.6679 0.0
H90 H 0.20381 0.73505 0.57517 0.0
C91 C 0.0924 0.70851 0.69462 0.0
C92 C 0.10712 0.78104 0.67745 0.0
H93 H 0.09607 0.59097 0.67918 0.0
H94 H 0.05838 0.69988 0.72661 0.0
C95 C 0.15225 0.78951 0.63592 0.0
C96 C 0.32359 -0.00153 0.91376 0.0
C97 C 0.3926 0.95163 0.91325 0.0
H98 H 0.21116 0.03819 0.87357 0.0
C99 C 0.39993 0.90644 0.87125 0.0
H100 H 0.31701 0.03404 0.94582 0.0
C101 C 0.341 0.91082 0.82935 0.0
C102 C 0.2727 0.95876 0.82948 0.0
H103 H 0.4531 0.8706 0.86987 0.0
H104 H 0.34904 0.87704 0.79668 0.0
C105 C 0.26332 0.00102 0.87254 0.0
C106 C 0.1813 0.29371 0.41099 0.0
C107 C 0.1125 0.33671 0.42007 0.0
H108 H 0.22372 0.19037 0.38174 0.0
C109 C 0.03372 0.31296 0.3995 0.0
H110 H 0.24268 0.31062 0.42615 0.0
C111 C 0.02292 0.24434 0.37513 0.0
C112 C 0.09072 0.19859 0.36956 0.0
H113 H 0.97927 0.34526 0.40482 0.0
H114 H 0.96101 0.22536 0.36277 0.0
C115 C 0.17044 0.22512 0.38551 0.0
C116 C 0.79254 0.00836 0.92163 0.0
C117 C 0.73868 0.06936 0.92406 0.0
H118 H 0.88402 0.95528 0.88288 0.0
C119 C 0.741 0.1279 0.88927 0.0
H120 H 0.79292 0.96264 0.94825 0.0
C121 C 0.79326 0.12328 0.85114 0.0
C122 C 0.84458 0.06046 0.84759 0.0
H123 H 0.70009 0.17546 0.89019 0.0
H124 H 0.79189 0.168 0.82376 0.0
C125 C 0.84498 0.0041 0.88409 0.0
C126 C 0.97294 0.72684 0.43333 0.0
C127 C 0.99495 0.65493 0.41884 0.0
H128 H 0.98414 0.84446 0.42139 0.0
C129 C 0.03386 0.64619 0.37502 0.0
H130 H 0.94499 0.73499 0.46775 0.0
C131 C 0.05638 0.70868 0.34829 0.0
C132 C 0.04162 0.78117 0.36545 0.0
H133 H 0.05278 0.59112 0.36374 0.0
H134 H 0.09039 0.70011 0.3163 0.0
C135 C 0.99651 0.78956 0.40699 0.0
loop_
_geom_bond_atom_site_label_1
_geom_bond_atom_site_label_2
_geom_bond_distance
_geom_bond_site_symmetry_2
_ccdc_geom_bond_type
C0 O2 1.247 1_545 S
C0 O4 1.258 . S
C1 O8 1.247 . S
C1 O9 1.258 1_545 S
O2 C0 1.247 1_565 S
O2 Zn3 2.028 1_556 S
Zn3 O2 2.028 1_554 S
Zn3 O7 2.035 1_554 S
Zn3 O9 2.035 . S
Zn3 O10 2.028 . S
O4 C0 1.258 . S
O4 Zn5 2.035 1_556 S
Zn5 O4 2.035 1_554 S
Zn5 O6 2.028 1_554 S
Zn5 O8 2.028 . S
Zn5 O11 2.035 . S
O6 Zn5 2.028 1_556 S
O6 C12 1.247 . S
O7 Zn3 2.035 1_556 S
O7 C12 1.258 1_565 S
O8 C1 1.247 . S
O8 Zn5 2.028 . S
O9 C1 1.258 1_565 S
O9 Zn3 2.035 . S
O10 Zn3 2.028 . S
O10 C13 1.247 1_565 S
O11 Zn5 2.035 . S
O11 C13 1.258 . S
C12 O6 1.247 . S
C12 O7 1.258 1_545 S
C13 O10 1.247 1_545 S
C13 O11 1.258 . S
C14 O16 1.247 1_455 S
C14 O18 1.258 . S
C15 O22 1.247 . S
C15 O23 1.258 1_455 S
O16 C14 1.247 1_655 S
O16 Zn17 2.028 . S
Zn17 O16 2.028 . S
Zn17 O21 2.035 . S
Zn17 O23 2.035 . S
Zn17 O24 2.028 . S
O18 C14 1.258 . S
O18 Zn19 2.035 . S
Zn19 O18 2.035 . S
Zn19 O20 2.028 . S
Zn19 O22 2.028 . S
Zn19 O25 2.035 . S
O20 Zn19 2.028 . S
O20 C26 1.247 . S
O21 Zn17 2.035 . S
O21 C26 1.258 1_655 S
O22 C15 1.247 . S
O22 Zn19 2.028 . S
O23 C15 1.258 1_655 S
O23 Zn17 2.035 . S
O24 Zn17 2.028 . S
O24 C27 1.247 1_655 S
O25 Zn19 2.035 . S
O25 C27 1.258 . S
C26 O20 1.247 . S
C26 O21 1.258 1_455 S
C27 O24 1.247 1_455 S
C27 O25 1.258 . S
Mg28 O29 2.028 . S
Mg28 O35 1.986 . S
Mg28 O37 2.114 1_545 S
Mg28 O38 2.251 1_545 S
Mg28 O41 2.010 . S
O29 Mg28 2.028 . S
O29 C32 1.250 1_455 S
O30 Mg31 2.028 . S
O30 C32 1.248 . S
Mg31 O30 2.028 . S
Mg31 O36 2.032 . S
Mg31 O38 2.079 1_645 S
C32 O29 1.250 1_655 S
C32 O30 1.248 . S
C33 O34 1.264 . S
C33 O41 1.249 . S
O34 C33 1.264 . S
O35 Mg28 1.986 . S
O35 C39 1.246 . S
O36 Mg31 2.032 . S
O36 C39 1.259 1_655 S
O37 Mg28 2.114 1_565 S
O37 C40 1.252 . S
O38 Mg28 2.251 1_565 S
O38 Mg31 2.079 1_465 S
O38 C40 1.273 . S
C39 O35 1.246 . S
C39 O36 1.259 1_455 S
C40 O37 1.252 . S
C40 O38 1.273 . S
O41 Mg28 2.010 . S
O41 C33 1.249 . S
Mg42 O43 2.028 1_655 S
Mg42 O49 1.986 1_655 S
Mg42 O51 2.114 1_545 S
Mg42 O52 2.251 1_645 S
Mg42 O55 2.010 . S
O43 Mg42 2.028 1_455 S
O43 C46 1.250 . S
O44 Mg45 2.028 . S
O44 C46 1.248 . S
Mg45 O44 2.028 . S
Mg45 O50 2.032 . S
Mg45 O52 2.079 1_545 S
C46 O43 1.250 . S
C46 O44 1.248 . S
C47 O48 1.264 . S
C47 O55 1.249 . S
O48 C47 1.264 . S
O49 Mg42 1.986 1_455 S
O49 C53 1.246 . S
O50 Mg45 2.032 . S
O50 C53 1.259 . S
O51 Mg42 2.114 1_565 S
O51 C54 1.252 1_655 S
O52 Mg42 2.251 1_465 S
O52 Mg45 2.079 1_565 S
O52 C54 1.273 . S
C53 O49 1.246 . S
C53 O50 1.259 . S
C54 O51 1.252 1_455 S
C54 O52 1.273 . S
O55 Mg42 2.010 . S
O55 C47 1.249 . S
C56 C57 1.387 1_565 S
C56 H60 0.950 . S
C56 C65 1.390 . S
C57 C56 1.387 1_545 S
C57 C59 1.387 . S
H58 C65 0.950 . S
C59 C57 1.387 . S
C59 C61 1.390 . S
C59 H63 0.950 . S
H60 C56 0.950 . S
C61 C59 1.390 . S
C61 C62 1.387 . S
C61 H64 0.950 . S
C62 C61 1.387 . S
C62 C65 1.387 1_545 S
H63 C59 0.950 . S
H64 C61 0.950 . S
C65 C56 1.390 . S
C65 H58 0.950 . S
C65 C62 1.387 1_565 S
C66 C67 1.387 1_655 S
C66 H70 0.950 . S
C66 C75 1.390 . S
C67 C66 1.387 1_455 S
C67 C69 1.387 . S
H68 C75 0.950 . S
C69 C67 1.387 . S
C69 C71 1.390 . S
C69 H73 0.950 . S
H70 C66 0.950 . S
C71 C69 1.390 . S
C71 C72 1.387 . S
C71 H74 0.950 . S
C72 C71 1.387 . S
C72 C75 1.387 1_455 S
H73 C69 0.950 . S
H74 C71 0.950 . S
C75 C66 1.390 . S
C75 H68 0.950 . S
C75 C72 1.387 1_655 S
C76 C77 1.387 1_565 S
C76 H80 0.950 . S
C76 C85 1.390 . S
C77 C76 1.387 1_545 S
C77 C79 1.387 . S
H78 C85 0.950 . S
C79 C77 1.387 . S
C79 C81 1.390 . S
C79 H83 0.950 . S
H80 C76 0.950 . S
C81 C79 1.390 . S
C81 C82 1.387 . S
C81 H84 0.950 . S
C82 C81 1.387 . S
C82 C85 1.387 1_545 S
H83 C79 0.950 . S
H84 C81 0.950 . S
C85 C76 1.390 . S
C85 H78 0.950 . S
C85 C82 1.387 1_565 S
C86 C87 1.387 . S
C86 H90 0.950 . S
C86 C95 1.390 . S
C87 C86 1.387 . S
C87 C89 1.387 1_455 S
H88 C95 0.950 . S
C89 C87 1.387 1_655 S
C89 C91 1.390 . S
C89 H93 0.950 . S
H90 C86 0.950 . S
C91 C89 1.390 . S
C91 C92 1.387 1_655 S
C91 H94 0.950 . S
C92 C91 1.387 1_455 S
C92 C95 1.387 . S
H93 C89 0.950 . S
H94 C91 0.950 . S
C95 C86 1.390 . S
C95 H88 0.950 . S
C95 C92 1.387 . S
C96 C97 1.387 . S
C96 H100 0.950 . S
C96 C105 1.390 . S
C97 C96 1.387 . S
C97 C99 1.387 1_545 S
H98 C105 0.950 . S
C99 C97 1.387 1_565 S
C99 C101 1.390 . S
C99 H103 0.950 . S
H100 C96 0.950 . S
C101 C99 1.390 . S
C101 C102 1.387 1_565 S
C101 H104 0.950 . S
C102 C101 1.387 1_545 S
C102 C105 1.387 . S
H103 C99 0.950 . S
H104 C101 0.950 . S
C105 C96 1.390 . S
C105 H98 0.950 . S
C105 C102 1.387 . S
C106 C107 1.387 . S
C106 H110 0.950 . S
C106 C115 1.390 . S
C107 C106 1.387 . S
C107 C109 1.387 1_455 S
H108 C115 0.950 . S
C109 C107 1.387 1_655 S
C109 C111 1.391 . S
C109 H113 0.950 . S
H110 C106 0.950 . S
C111 C109 1.391 . S
C111 C112 1.379 1_655 S
C111 H114 0.957 . S
C112 C111 1.379 1_455 S
C112 C115 1.387 . S
H113 C109 0.950 . S
H114 C111 0.957 . S
C115 C106 1.390 . S
C115 H108 0.950 . S
C115 C112 1.387 . S
C116 C117 1.387 . S
C116 H120 0.950 . S
C116 C125 1.390 . S
C117 C116 1.387 . S
C117 C119 1.387 1_545 S
H118 C125 0.950 . S
C119 C117 1.387 1_565 S
C119 C121 1.390 . S
C119 H123 0.950 . S
H120 C116 0.950 . S
C121 C119 1.390 . S
C121 C122 1.387 1_565 S
C121 H124 0.950 . S
C122 C121 1.387 1_545 S
C122 C125 1.387 . S
H123 C119 0.950 . S
H124 C121 0.950 . S
C125 C116 1.390 . S
C125 H118 0.950 . S
C125 C122 1.387 . S
C126 C127 1.387 1_655 S
C126 H130 0.950 . S
C126 C135 1.389 1_655 S
C127 C126 1.387 1_455 S
C127 C129 1.387 . S
H128 C135 0.939 1_655 S
C129 C127 1.387 . S
C129 C131 1.390 . S
C129 H133 0.950 . S
H130 C126 0.950 . S
C131 C129 1.390 . S
C131 C132 1.387 . S
C131 H134 0.950 . S
C132 C131 1.387 . S
C132 C135 1.400 . S
H133 C129 0.950 . S
H134 C131 0.950 . S
C135 C126 1.389 1_455 S
C135 H128 0.939 1_455 S
C135 C132 1.400 . S
C62 C33 1.260 . S
C57 C13 1.476 . S
C72 C53 1.440 . S
C67 C15 1.473 . S
C82 C32 1.452 . S
C77 C1 1.482 . S
C92 C54 1.488 . S
C87 C27 1.488 . S
C102 C46 1.449 . S
C97 C0 1.483 . S
C112 C39 1.440 . S
C107 C26 1.473 . S
C122 C47 1.267 . S
C117 C12 1.476 . S
C127 C14 1.488 . S
C132 C40 1.488 . S
