# Generated by pormake.
# Topology bcu-b, (8,8)-cn, num edge types: 1
# Building blocks:
#     Node 0, Type 0, BuildingBlock: VETTIZ_charged_sbu_0, # of connection points: 8
#     Node 1, Type 1, BuildingBlock: GIZVER_clean_sbu_0, # of connection points: 8
#     Edge 2, Type (0, 1), BuildingBlock: OJICUG_clean_linker_0, # of connection points: 2
#     Edge 3, Type (0, 1), BuildingBlock: OJICUG_clean_linker_0, # of connection points: 2
#     Edge 4, Type (0, 1), BuildingBlock: OJICUG_clean_linker_0, # of connection points: 2
#     Edge 5, Type (0, 1), BuildingBlock: OJICUG_clean_linker_0, # of connection points: 2
#     Edge 6, Type (0, 1), BuildingBlock: OJICUG_clean_linker_0, # of connection points: 2
#     Edge 7, Type (0, 1), BuildingBlock: OJICUG_clean_linker_0, # of connection points: 2
#     Edge 8, Type (0, 1), BuildingBlock: OJICUG_clean_linker_0, # of connection points: 2
#     Edge 9, Type (0, 1), BuildingBlock: OJICUG_clean_linker_0, # of connection points: 2
# Relax obj value: 0.086
# Max RMSD: 0.149
# Mean RMSD: 0.139
data_MOF--net-bcu-b--node1-VETTIZ_charged_sbu_0--node2-GIZVER_clean_sbu_0--edge1-OJICUG_clean_linker_0
_symmetry_space_group_name_H-M    P1
_symmetry_Int_Tables_number       1
_symmetry_cell_setting            triclinic
loop_
_symmetry_equiv_pos_as_xyz
'x, y, z'
_cell_length_a     16.173937
_cell_length_b     17.039472
_cell_length_c     12.197851
_cell_angle_alpha  90.287999
_cell_angle_beta   93.240282
_cell_angle_gamma 104.28555
loop_
_atom_site_label
_atom_site_type_symbol
_atom_site_fract_x
_atom_site_fract_y
_atom_site_fract_z
_atom_type_partial_charge
Fe0 Fe 1.00033 0.94121 1.03004 0.0
O1 O 0.96568 1.01411 0.13822 0.0
Fe2 Fe 0.03611 0.06117 0.79848 0.0
Fe3 Fe 0.98366 1.00612 0.29854 0.0
O4 O 0.05342 0.04497 0.95717 0.0
O5 O 0.05409 0.05319 0.9588 0.0
O6 O 0.96635 1.02232 0.13984 0.0
Fe7 Fe 0.01945 0.12608 0.06697 0.0
C8 C 0.88716 0.8406 0.20337 0.0
O9 O 0.11294 0.94589 0.11946 0.0
O10 O 0.06865 0.93417 0.28968 0.0
O11 O 0.08484 0.22537 0.9768 0.0
O12 O 0.12994 0.16633 0.82705 0.0
O13 O 0.11274 0.98158 0.79279 0.0
O14 O 0.04832 0.87925 0.9069 0.0
O15 O 0.08507 0.10656 0.32318 0.0
O16 O 0.13265 0.1377 0.15728 0.0
C17 C 0.10176 0.90934 0.83244 0.0
O18 O 0.90684 0.1214 0.97756 0.0
O19 O 0.95113 0.13312 0.80733 0.0
O20 O 0.93493 0.84193 0.12022 0.0
O21 O 0.88983 0.90096 0.26997 0.0
C22 C 0.12061 0.9254 0.21885 0.0
C23 C 0.14239 0.14317 0.26129 0.0
C24 C 0.91801 0.15796 0.26458 0.0
O25 O 0.90704 0.08571 0.30423 0.0
O26 O 0.97146 0.18804 0.19012 0.0
C27 C 0.13261 0.22669 0.89365 0.0
O28 O 0.93471 0.96074 0.77384 0.0
O29 O 0.88712 0.92959 0.93973 0.0
C30 C 0.89916 0.14189 0.87816 0.0
C31 C 0.87738 0.92412 0.83573 0.0
Co32 Co 0.60448 0.38053 0.52146 0.0
Co33 Co 0.6045 0.43083 0.71616 0.0
Co34 Co 0.50989 0.53365 0.54851 0.0
O35 O 0.60655 0.48299 0.58548 0.0
H36 H 0.66117 0.52127 0.58039 0.0
O37 O 0.41323 0.5843 0.51154 0.0
Co38 Co 0.4153 0.68677 0.57555 0.0
Co39 Co 0.41527 0.63646 0.38085 0.0
H40 H 0.35861 0.54602 0.51662 0.0
O41 O 0.70341 0.42491 0.7921 0.0
O42 O 0.62348 0.33352 0.66832 0.0
O43 O 0.50065 0.41505 0.78971 0.0
O44 O 0.433 0.47551 0.66406 0.0
O45 O 0.56619 0.62231 0.65635 0.0
O46 O 0.40788 0.77706 0.64019 0.0
O47 O 0.30225 0.66539 0.60002 0.0
O48 O 0.5345 0.72222 0.56243 0.0
O49 O 0.58677 0.59178 0.43295 0.0
O50 O 0.51912 0.65224 0.30731 0.0
O51 O 0.3963 0.73378 0.4287 0.0
O52 O 0.31637 0.64238 0.30492 0.0
C53 C 0.69148 0.32953 0.45227 0.0
C54 C 0.43625 0.3706 0.46637 0.0
C55 C 0.43414 0.43505 0.75214 0.0
C56 C 0.68684 0.35451 0.74258 0.0
C57 C 0.32829 0.73777 0.64475 0.0
C58 C 0.58353 0.6967 0.63064 0.0
C59 C 0.58563 0.63224 0.34487 0.0
C60 C 0.33294 0.71279 0.35444 0.0
O61 O 0.61189 0.29023 0.45683 0.0
O62 O 0.71753 0.4019 0.497 0.0
O63 O 0.45359 0.44499 0.44067 0.0
O64 O 0.48527 0.34508 0.53459 0.0
C65 C 0.25229 0.2749 0.26378 0.0
C66 C 0.21904 0.19996 0.31214 0.0
H67 H 0.34634 0.38831 0.27537 0.0
C68 C 0.2565 0.18205 0.41245 0.0
H69 H 0.22263 0.29107 0.18833 0.0
C70 C 0.32726 0.23749 0.4624 0.0
C71 C 0.3607 0.31259 0.41403 0.0
H72 H 0.23138 0.12493 0.45185 0.0
H73 H 0.35522 0.22187 0.53946 0.0
C74 C 0.32217 0.33092 0.31452 0.0
C75 C 0.88869 0.28982 0.32695 0.0
C76 C 0.86112 0.20603 0.30518 0.0
H77 H 0.85694 0.39532 0.39337 0.0
C78 C 0.77775 0.16506 0.32865 0.0
H79 H 0.95287 0.32268 0.30984 0.0
C80 C 0.72343 0.20595 0.37483 0.0
C81 C 0.75102 0.2891 0.4003 0.0
H82 H 0.75432 0.10063 0.31179 0.0
H83 H 0.65994 0.17153 0.3924 0.0
C84 C 0.83414 0.33105 0.37534 0.0
C85 C 0.82054 0.72649 0.31988 0.0
C86 C 0.81905 0.76797 0.22108 0.0
H87 H 0.74767 0.64877 0.43562 0.0
C88 C 0.74294 0.75414 0.15501 0.0
H89 H 0.87832 0.73798 0.3732 0.0
C90 C 0.66768 0.70417 0.19111 0.0
C91 C 0.66742 0.66748 0.29423 0.0
H92 H 0.73971 0.78793 0.08068 0.0
H93 H 0.60868 0.69891 0.14172 0.0
C94 C 0.74553 0.67582 0.35566 0.0
C95 C 0.22262 0.88511 0.35644 0.0
C96 C 0.18364 0.87863 0.24976 0.0
H97 H 0.30345 0.83981 0.47183 0.0
C98 C 0.19807 0.82048 0.17618 0.0
H99 H 0.21243 0.92955 0.41467 0.0
C100 C 0.24696 0.767 0.21038 0.0
C101 C 0.28453 0.77213 0.31781 0.0
H102 H 0.16818 0.81374 0.09373 0.0
H103 H 0.25486 0.7212 0.15273 0.0
C104 C 0.27412 0.83338 0.3894 0.0
C105 C 0.13108 0.77747 0.77008 0.0
C106 C 0.15866 0.86127 0.79184 0.0
H107 H 0.16284 0.67197 0.70365 0.0
C108 C 0.24203 0.90223 0.76836 0.0
H109 H 0.06691 0.74462 0.78719 0.0
C110 C 0.29634 0.86134 0.72218 0.0
C111 C 0.26875 0.77819 0.69671 0.0
H112 H 0.26546 0.96666 0.78522 0.0
H113 H 0.35984 0.89577 0.70461 0.0
C114 C 0.18564 0.73624 0.72169 0.0
C115 C 0.19924 0.3408 0.77714 0.0
C116 C 0.20072 0.29933 0.87594 0.0
H117 H 0.27211 0.41852 0.6614 0.0
C118 C 0.27684 0.31315 0.94201 0.0
H119 H 0.14145 0.32932 0.72382 0.0
C120 C 0.3521 0.36312 0.90591 0.0
C121 C 0.35236 0.39981 0.80279 0.0
H122 H 0.28006 0.27936 1.01634 0.0
H123 H 0.41109 0.36838 0.9553 0.0
C124 C 0.27425 0.39148 0.74136 0.0
C125 C 0.82171 0.24681 0.92083 0.0
C126 C 0.83614 0.18866 0.84725 0.0
H127 H 0.76492 0.3461 0.94428 0.0
C128 C 0.79715 0.18218 0.74058 0.0
H129 H 0.8516 0.25356 1.00328 0.0
C130 C 0.74566 0.23391 0.70761 0.0
C131 C 0.73524 0.29516 0.7792 0.0
H132 H 0.80734 0.13774 0.68235 0.0
H133 H 0.71632 0.22748 0.62518 0.0
C134 C 0.77282 0.3003 0.88664 0.0
C135 C 0.76748 0.7924 0.83324 0.0
C136 C 0.80073 0.86733 0.78488 0.0
H137 H 0.67343 0.67898 0.82164 0.0
C138 C 0.76328 0.88524 0.68457 0.0
H139 H 0.79714 0.77622 0.90869 0.0
C140 C 0.69252 0.8298 0.63462 0.0
C141 C 0.65907 0.75471 0.68298 0.0
H142 H 0.78839 0.94236 0.64517 0.0
H143 H 0.66455 0.84543 0.55755 0.0
C144 C 0.69761 0.73637 0.7825 0.0
loop_
_geom_bond_atom_site_label_1
_geom_bond_atom_site_label_2
_geom_bond_distance
_geom_bond_site_symmetry_2
_ccdc_geom_bond_type
Fe0 O1 1.886 . S
Fe0 O4 1.715 1_554 S
Fe0 O9 2.077 1_655 S
Fe0 O14 1.935 1_654 S
Fe0 O20 2.077 . S
Fe0 O29 1.935 1_554 S
O1 Fe0 1.886 . S
O1 Fe3 1.715 1_655 S
Fe2 O4 1.886 1_545 S
Fe2 O5 1.715 1_655 S
Fe2 O12 1.935 1_655 S
Fe2 O13 2.077 1_645 S
Fe2 O19 1.935 . S
Fe2 O28 2.077 1_545 S
Fe3 O1 1.715 1_455 S
Fe3 O6 1.886 1_565 S
Fe3 O10 1.935 . S
Fe3 O15 2.077 1_565 S
Fe3 O21 1.935 1_455 S
Fe3 O25 2.077 1_465 S
O4 Fe0 1.715 1_556 S
O4 Fe2 1.886 1_565 S
O5 Fe2 1.715 1_455 S
O5 Fe7 1.886 . S
O6 Fe3 1.886 1_545 S
O6 Fe7 1.715 1_554 S
Fe7 O5 1.886 . S
Fe7 O6 1.715 1_556 S
Fe7 O11 2.077 . S
Fe7 O16 1.935 1_556 S
Fe7 O18 2.077 1_455 S
Fe7 O26 1.935 1_456 S
C8 O20 1.381 . S
C8 O21 1.421 . S
O9 Fe0 2.077 1_455 S
O9 C22 1.381 . S
O10 Fe3 1.935 . S
O10 C22 1.421 . S
O11 Fe7 2.077 . S
O11 C27 1.381 . S
O12 Fe2 1.935 1_455 S
O12 C27 1.421 . S
O13 Fe2 2.077 1_465 S
O13 C17 1.381 . S
O14 Fe0 1.935 1_456 S
O14 C17 1.421 . S
O15 Fe3 2.077 1_545 S
O15 C23 1.381 . S
O16 Fe7 1.935 1_554 S
O16 C23 1.421 . S
C17 O13 1.381 . S
C17 O14 1.421 . S
O18 Fe7 2.077 1_655 S
O18 C30 1.381 . S
O19 Fe2 1.935 . S
O19 C30 1.421 . S
O20 Fe0 2.077 . S
O20 C8 1.381 . S
O21 Fe3 1.935 1_655 S
O21 C8 1.421 . S
C22 O9 1.381 . S
C22 O10 1.421 . S
C23 O15 1.381 . S
C23 O16 1.421 . S
C24 O25 1.381 . S
C24 O26 1.421 . S
O25 Fe3 2.077 1_645 S
O25 C24 1.381 . S
O26 Fe7 1.935 1_654 S
O26 C24 1.421 . S
C27 O11 1.381 . S
C27 O12 1.421 . S
O28 Fe2 2.077 1_565 S
O28 C31 1.381 . S
O29 Fe0 1.935 1_556 S
O29 C31 1.421 . S
C30 O18 1.381 . S
C30 O19 1.421 . S
C31 O28 1.381 . S
C31 O29 1.421 . S
Co32 O35 2.042 . S
Co32 O42 2.264 . S
Co32 O61 2.286 . S
Co32 O62 2.069 . S
Co32 O64 2.015 . S
Co33 O35 2.122 . S
Co33 O41 2.073 . S
Co33 O42 2.327 . S
Co33 O43 1.976 . S
Co34 O35 2.087 . S
Co34 O37 2.087 . S
Co34 O44 2.111 . S
Co34 O45 2.143 . S
Co34 O49 2.111 . S
Co34 O63 2.143 . S
O35 Co32 2.042 . S
O35 Co33 2.122 . S
O35 Co34 2.087 . S
O35 H36 0.980 . S
H36 O35 0.980 . S
O37 Co34 2.087 . S
O37 Co38 2.042 . S
O37 Co39 2.122 . S
O37 H40 0.980 . S
Co38 O37 2.042 . S
Co38 O46 2.286 . S
Co38 O47 2.069 . S
Co38 O48 2.015 . S
Co38 O51 2.264 . S
Co39 O37 2.122 . S
Co39 O50 1.976 . S
Co39 O51 2.327 . S
Co39 O52 2.073 . S
H40 O37 0.980 . S
O41 Co33 2.073 . S
O41 C56 1.245 . S
O42 Co32 2.264 . S
O42 Co33 2.327 . S
O42 C56 1.257 . S
O43 Co33 1.976 . S
O43 C55 1.251 . S
O44 Co34 2.111 . S
O44 C55 1.274 . S
O45 Co34 2.143 . S
O45 C58 1.246 . S
O46 Co38 2.286 . S
O46 C57 1.259 . S
O47 Co38 2.069 . S
O47 C57 1.289 . S
O48 Co38 2.015 . S
O48 C58 1.257 . S
O49 Co34 2.111 . S
O49 C59 1.274 . S
O50 Co39 1.976 . S
O50 C59 1.251 . S
O51 Co38 2.264 . S
O51 Co39 2.327 . S
O51 C60 1.257 . S
O52 Co39 2.073 . S
O52 C60 1.245 . S
C53 O61 1.259 . S
C53 O62 1.289 . S
C54 O63 1.246 . S
C54 O64 1.257 . S
C55 O43 1.251 . S
C55 O44 1.274 . S
C56 O41 1.245 . S
C56 O42 1.257 . S
C57 O46 1.259 . S
C57 O47 1.289 . S
C58 O45 1.246 . S
C58 O48 1.257 . S
C59 O49 1.274 . S
C59 O50 1.251 . S
C60 O51 1.257 . S
C60 O52 1.245 . S
O61 Co32 2.286 . S
O61 C53 1.259 . S
O62 Co32 2.069 . S
O62 C53 1.289 . S
O63 Co34 2.143 . S
O63 C54 1.246 . S
O64 Co32 2.015 . S
O64 C54 1.257 . S
C65 C66 1.387 . S
C65 H69 0.950 . S
C65 C74 1.390 . S
C66 C65 1.387 . S
C66 C68 1.387 . S
H67 C74 0.950 . S
C68 C66 1.387 . S
C68 C70 1.390 . S
C68 H72 0.950 . S
H69 C65 0.950 . S
C70 C68 1.390 . S
C70 C71 1.387 . S
C70 H73 0.950 . S
C71 C70 1.387 . S
C71 C74 1.387 . S
H72 C68 0.950 . S
H73 C70 0.950 . S
C74 C65 1.390 . S
C74 H67 0.950 . S
C74 C71 1.387 . S
C75 C76 1.387 . S
C75 H79 0.950 . S
C75 C84 1.390 . S
C76 C75 1.387 . S
C76 C78 1.387 . S
H77 C84 0.950 . S
C78 C76 1.387 . S
C78 C80 1.390 . S
C78 H82 0.950 . S
H79 C75 0.950 . S
C80 C78 1.390 . S
C80 C81 1.387 . S
C80 H83 0.950 . S
C81 C80 1.387 . S
C81 C84 1.387 . S
H82 C78 0.950 . S
H83 C80 0.950 . S
C84 C75 1.390 . S
C84 H77 0.950 . S
C84 C81 1.387 . S
C85 C86 1.387 . S
C85 H89 0.950 . S
C85 C94 1.390 . S
C86 C85 1.387 . S
C86 C88 1.387 . S
H87 C94 0.950 . S
C88 C86 1.387 . S
C88 C90 1.390 . S
C88 H92 0.950 . S
H89 C85 0.950 . S
C90 C88 1.390 . S
C90 C91 1.387 . S
C90 H93 0.950 . S
C91 C90 1.387 . S
C91 C94 1.387 . S
H92 C88 0.950 . S
H93 C90 0.950 . S
C94 C85 1.390 . S
C94 H87 0.950 . S
C94 C91 1.387 . S
C95 C96 1.387 . S
C95 H99 0.950 . S
C95 C104 1.390 . S
C96 C95 1.387 . S
C96 C98 1.387 . S
H97 C104 0.950 . S
C98 C96 1.387 . S
C98 C100 1.390 . S
C98 H102 0.950 . S
H99 C95 0.950 . S
C100 C98 1.390 . S
C100 C101 1.387 . S
C100 H103 0.950 . S
C101 C100 1.387 . S
C101 C104 1.387 . S
H102 C98 0.950 . S
H103 C100 0.950 . S
C104 C95 1.390 . S
C104 H97 0.950 . S
C104 C101 1.387 . S
C105 C106 1.387 . S
C105 H109 0.950 . S
C105 C114 1.390 . S
C106 C105 1.387 . S
C106 C108 1.387 . S
H107 C114 0.950 . S
C108 C106 1.387 . S
C108 C110 1.390 . S
C108 H112 0.950 . S
H109 C105 0.950 . S
C110 C108 1.390 . S
C110 C111 1.387 . S
C110 H113 0.950 . S
C111 C110 1.387 . S
C111 C114 1.387 . S
H112 C108 0.950 . S
H113 C110 0.950 . S
C114 C105 1.390 . S
C114 H107 0.950 . S
C114 C111 1.387 . S
C115 C116 1.387 . S
C115 H119 0.950 . S
C115 C124 1.390 . S
C116 C115 1.387 . S
C116 C118 1.387 . S
H117 C124 0.950 . S
C118 C116 1.387 . S
C118 C120 1.390 . S
C118 H122 0.950 . S
H119 C115 0.950 . S
C120 C118 1.390 . S
C120 C121 1.387 . S
C120 H123 0.950 . S
C121 C120 1.387 . S
C121 C124 1.387 . S
H122 C118 0.950 . S
H123 C120 0.950 . S
C124 C115 1.390 . S
C124 H117 0.950 . S
C124 C121 1.387 . S
C125 C126 1.387 . S
C125 H129 0.950 . S
C125 C134 1.390 . S
C126 C125 1.387 . S
C126 C128 1.387 . S
H127 C134 0.950 . S
C128 C126 1.387 . S
C128 C130 1.390 . S
C128 H132 0.950 . S
H129 C125 0.950 . S
C130 C128 1.390 . S
C130 C131 1.387 . S
C130 H133 0.950 . S
C131 C130 1.387 . S
C131 C134 1.387 . S
H132 C128 0.950 . S
H133 C130 0.950 . S
C134 C125 1.390 . S
C134 H127 0.950 . S
C134 C131 1.387 . S
C135 C136 1.387 . S
C135 H139 0.950 . S
C135 C144 1.390 . S
C136 C135 1.387 . S
C136 C138 1.387 . S
H137 C144 0.950 . S
C138 C136 1.387 . S
C138 C140 1.390 . S
C138 H142 0.950 . S
H139 C135 0.950 . S
C140 C138 1.390 . S
C140 C141 1.387 . S
C140 H143 0.950 . S
C141 C140 1.387 . S
C141 C144 1.387 . S
H142 C138 0.950 . S
H143 C140 0.950 . S
C144 C135 1.390 . S
C144 H137 0.950 . S
C144 C141 1.387 . S
C66 C23 1.489 . S
C71 C54 1.488 . S
C76 C24 1.530 . S
C81 C53 1.561 . S
C86 C8 1.487 . S
C91 C59 1.421 . S
C96 C22 1.474 . S
C101 C60 1.423 . S
C106 C17 1.532 . S
C111 C57 1.563 . S
C121 C55 1.421 . S
C116 C27 1.488 . S
C126 C30 1.474 . S
C131 C56 1.423 . S
C141 C58 1.486 . S
C136 C31 1.487 . S
