# Generated by pormake.
# Topology pth, (4,4)-cn, num edge types: 1
# Building blocks:
#     Node 0, Type 0, BuildingBlock: TATPOV_clean_sbu_0, # of connection points: 4
#     Node 1, Type 0, BuildingBlock: TATPOV_clean_sbu_0, # of connection points: 4
#     Node 2, Type 0, BuildingBlock: TATPOV_clean_sbu_0, # of connection points: 4
#     Node 3, Type 1, BuildingBlock: NAWXER_clean_sbu_0, # of connection points: 4
#     Node 4, Type 1, BuildingBlock: NAWXER_clean_sbu_0, # of connection points: 4
#     Node 5, Type 1, BuildingBlock: NAWXER_clean_sbu_0, # of connection points: 4
#     Edge 6, Type (0, 1), BuildingBlock: AJUNOK_clean_linker_0, # of connection points: 2
#     Edge 7, Type (0, 1), BuildingBlock: AJUNOK_clean_linker_0, # of connection points: 2
#     Edge 8, Type (0, 1), BuildingBlock: AJUNOK_clean_linker_0, # of connection points: 2
#     Edge 9, Type (0, 1), BuildingBlock: AJUNOK_clean_linker_0, # of connection points: 2
#     Edge 10, Type (0, 1), BuildingBlock: AJUNOK_clean_linker_0, # of connection points: 2
#     Edge 11, Type (0, 1), BuildingBlock: AJUNOK_clean_linker_0, # of connection points: 2
#     Edge 12, Type (0, 1), BuildingBlock: AJUNOK_clean_linker_0, # of connection points: 2
#     Edge 13, Type (0, 1), BuildingBlock: AJUNOK_clean_linker_0, # of connection points: 2
#     Edge 14, Type (0, 1), BuildingBlock: AJUNOK_clean_linker_0, # of connection points: 2
#     Edge 15, Type (0, 1), BuildingBlock: AJUNOK_clean_linker_0, # of connection points: 2
#     Edge 16, Type (0, 1), BuildingBlock: AJUNOK_clean_linker_0, # of connection points: 2
#     Edge 17, Type (0, 1), BuildingBlock: AJUNOK_clean_linker_0, # of connection points: 2
# Relax obj value: 0.049
# Max RMSD: 0.173
# Mean RMSD: 0.098
data_MOF--net-pth--node1-TATPOV_clean_sbu_0--node2-NAWXER_clean_sbu_0--edge1-AJUNOK_clean_linker_0
_symmetry_space_group_name_H-M    P1
_symmetry_Int_Tables_number       1
_symmetry_cell_setting            triclinic
loop_
_symmetry_equiv_pos_as_xyz
'x, y, z'
_cell_length_a     17.026464
_cell_length_b     16.853888
_cell_length_c     41.692511
_cell_angle_alpha  92.870509
_cell_angle_beta   92.165253
_cell_angle_gamma 120.8055
loop_
_atom_site_label
_atom_site_type_symbol
_atom_site_fract_x
_atom_site_fract_y
_atom_site_fract_z
_atom_type_partial_charge
Zn0 Zn 0.16677 0.00061 0.9959 0.0
Zn1 Zn 0.11442 0.10288 0.02827 0.0
O2 O 0.12517 0.02113 0.06187 0.0
O3 O 0.17339 0.94 0.03512 0.0
O4 O 0.09063 0.19105 0.05484 0.0
O5 O 0.27959 0.10916 0.98211 0.0
O6 O 0.23055 0.19375 0.00557 0.0
C7 C 0.14965 0.96104 0.06104 0.0
C8 C 0.98882 0.97275 0.97287 0.0
O9 O 1.00136 0.03044 0.99628 0.0
O10 O 0.04849 0.95055 0.96812 0.0
C11 C 0.01516 0.17146 0.06635 0.0
O12 O 0.94453 0.08655 0.06126 0.0
C13 C 0.28851 0.1875 0.9887 0.0
Zn14 Zn 0.1992 0.13272 0.32064 0.0
Zn15 Zn 0.07574 0.10236 0.362 0.0
O16 O 0.18839 0.12642 0.39156 0.0
O17 O 0.28311 0.13314 0.35575 0.0
O18 O 0.97848 0.08368 0.39256 0.0
O19 O 0.21096 0.25157 0.30935 0.0
O20 O 0.09221 0.21448 0.33776 0.0
C21 C 0.264 0.13314 0.38478 0.0
C22 C 0.03579 0.95688 0.30691 0.0
O23 O 0.01581 0.97812 0.33387 0.0
O24 O 0.10863 0.01402 0.29467 0.0
C25 C 0.91363 0.0052 0.39967 0.0
O26 O 0.9094 0.92952 0.38761 0.0
C27 C 0.15092 0.26808 0.31902 0.0
Zn28 Zn 0.15559 0.96949 0.72709 0.0
Zn29 Zn 0.05607 0.01694 0.69035 0.0
O30 O 0.13622 0.99647 0.65829 0.0
O31 O 0.21751 0.95713 0.68877 0.0
O32 O 0.97263 0.04213 0.66228 0.0
O33 O 0.04446 0.85692 0.73988 0.0
O34 O 0.96225 0.90194 0.71302 0.0
C35 C 0.19557 0.97192 0.66135 0.0
C36 C 0.18036 0.15004 0.74633 0.0
O37 O 0.12714 0.1341 0.72148 0.0
O38 O 0.20199 0.09125 0.75366 0.0
C39 C 0.98592 0.12138 0.65638 0.0
O40 O 0.0615 0.19629 0.66839 0.0
C41 C 0.96722 0.8453 0.73102 0.0
C42 C 0.95203 0.63503 0.23353 0.0
C43 C 0.99325 0.44171 0.1526 0.0
O44 O 0.03606 0.66208 0.22959 0.0
Zn45 Zn 0.11403 0.62211 0.2014 0.0
O46 O 0.88801 0.56351 0.21726 0.0
Zn47 Zn 0.96886 0.53626 0.19348 0.0
O48 O 0.031 0.49612 0.23032 0.0
O49 O 0.17979 0.59628 0.23342 0.0
O50 O 0.9177 0.43025 0.16147 0.0
O51 O 0.06869 0.50959 0.16577 0.0
O52 O 0.18202 0.72813 0.17719 0.0
O53 O 0.03244 0.65438 0.16501 0.0
C54 C 0.11178 0.52469 0.24311 0.0
C55 C 0.11354 0.72179 0.16135 0.0
C56 C 0.70734 0.12643 0.57205 0.0
C57 C 0.50675 0.13353 0.48606 0.0
O58 O 0.64548 0.04668 0.55919 0.0
Zn59 Zn 0.53503 0.98655 0.52318 0.0
O60 O 0.70992 0.19856 0.56282 0.0
Zn61 Zn 0.60721 0.13562 0.52994 0.0
O62 O 0.49064 0.06632 0.55725 0.0
O63 O 0.42892 0.91524 0.5477 0.0
O64 O 0.5699 0.20388 0.50313 0.0
O65 O 0.48938 0.05207 0.49131 0.0
O66 O 0.57723 0.9264 0.4933 0.0
O67 O 0.66117 0.07902 0.49609 0.0
C68 C 0.42848 0.98348 0.56199 0.0
C69 C 0.64527 -0.00013 0.4844 0.0
C70 C 0.52441 0.46286 0.90512 0.0
C71 C 0.68164 0.60975 0.8107 0.0
O72 O 0.50167 0.51947 0.89495 0.0
Zn73 Zn 0.53553 0.61247 0.85727 0.0
O74 O 0.58324 0.45209 0.89074 0.0
Zn75 Zn 0.6036 0.53468 0.85777 0.0
O76 O 0.6755 0.66624 0.88342 0.0
O77 O 0.59313 0.73364 0.88203 0.0
O78 O 0.68542 0.54743 0.82543 0.0
O79 O 0.62912 0.63873 0.82017 0.0
O80 O 0.41717 0.55986 0.83226 0.0
O81 O 0.47489 0.46835 0.83158 0.0
C82 C 0.66611 0.73513 0.89113 0.0
C83 C 0.41078 0.48327 0.82343 0.0
C84 C 0.92869 0.21852 0.10267 0.0
C85 C 0.00818 0.24302 0.08637 0.0
C86 C 0.92269 0.28375 0.12317 0.0
C87 C 0.99613 0.3759 0.1283 0.0
H88 H 0.87116 0.14789 0.10017 0.0
H89 H 0.86123 0.26099 0.13586 0.0
S90 S 0.21557 0.47863 0.08873 0.0
N91 N 0.15911 0.36855 0.07493 0.0
N92 N 0.14788 0.49026 0.11337 0.0
C93 C 0.07453 0.40221 0.11121 0.0
C94 C 0.08055 0.3361 0.0903 0.0
C95 C 0.84829 0.08232 0.43287 0.0
C96 C 0.84275 3e-05 0.4208 0.0
C97 C 0.78335 0.08077 0.45283 0.0
C98 C 0.70954 0.99685 0.46179 0.0
H99 H 0.90358 0.14912 0.42699 0.0
H100 H 0.79195 0.14663 0.46148 0.0
S101 S 0.66174 0.76109 0.43622 0.0
N102 N 0.75591 0.83137 0.41886 0.0
N103 N 0.63389 0.8287 0.4565 0.0
C104 C 0.70225 0.91369 0.44965 0.0
C105 C 0.76874 0.91523 0.4292 0.0
C106 C 0.81211 0.78698 0.75115 0.0
C107 C 0.88489 0.77284 0.74522 0.0
C108 C 0.74339 0.73017 0.77085 0.0
C109 C 0.74455 0.65671 0.7852 0.0
H110 H 0.81123 0.84585 0.74225 0.0
H111 H 0.69158 0.74708 0.7761 0.0
S112 S 0.91106 0.58024 0.77187 0.0
N113 N 0.94737 0.67264 0.75139 0.0
N114 N 0.81809 0.5654 0.7882 0.0
C115 C 0.81265 0.63701 0.77707 0.0
C116 C 0.88287 0.69524 0.75716 0.0
C117 C 0.20969 0.88243 0.09456 0.0
C118 C 0.14559 0.91057 0.08949 0.0
C119 C 0.20112 0.82446 0.11884 0.0
C120 C 0.12663 0.79043 0.13826 0.0
H121 H 0.26606 0.90406 0.07922 0.0
H122 H 0.25095 0.80301 0.1215 0.0
S123 S 0.94294 0.84724 0.13599 0.0
N124 N 0.00828 0.90436 0.10716 0.0
N125 N 0.99033 0.79267 0.15209 0.0
C126 C 0.06346 0.81995 0.13406 0.0
C127 C 0.0735 0.88091 0.10988 0.0
C128 C 0.34186 0.18409 0.44071 0.0
C129 C 0.32886 0.13691 0.41032 0.0
C130 C 0.40397 0.18782 0.46488 0.0
C131 C 0.45304 0.14262 0.45953 0.0
H132 H 0.30404 0.2184 0.44579 0.0
H133 H 0.41099 0.22308 0.48821 0.0
S134 S 0.44341 0.0095 0.38451 0.0
N135 N 0.37143 0.04523 0.37635 0.0
N136 N 0.48542 0.05022 0.42194 0.0
C137 C 0.44095 0.09585 0.42931 0.0
C138 C 0.37954 0.09352 0.40464 0.0
C139 C 0.25746 0.32322 0.75333 0.0
C140 C 0.219 0.23737 0.76693 0.0
C141 C 0.31255 0.40675 0.77257 0.0
C142 C 0.32864 0.40607 0.80585 0.0
H143 H 0.25125 0.32545 0.72748 0.0
H144 H 0.34874 0.47093 0.76102 0.0
S145 S 0.22958 0.20119 0.85361 0.0
N146 N 0.19063 0.15806 0.81609 0.0
N147 N 0.29272 0.3146 0.85205 0.0
C148 C 0.28305 0.32151 0.81995 0.0
C149 C 0.22846 0.23705 0.80051 0.0
C150 C 0.83084 0.04661 0.62722 0.0
C151 C 0.91535 0.12776 0.63636 0.0
C152 C 0.76357 0.04833 0.60751 0.0
C153 C 0.77734 0.13124 0.59583 0.0
H154 H 0.81633 0.9804 0.63506 0.0
H155 H 0.70052 0.98314 0.60098 0.0
S156 S 0.98505 0.36434 0.61367 0.0
N157 N 0.00802 0.29477 0.63314 0.0
N158 N 0.88116 0.29764 0.59581 0.0
C159 C 0.86044 0.21366 0.60544 0.0
C160 C 0.92945 0.21198 0.6257 0.0
C161 C 0.91072 0.90069 0.91905 0.0
C162 C 0.90528 0.92981 0.95064 0.0
C163 C 0.83191 0.84474 0.89878 0.0
C164 C 0.74445 0.81572 0.90922 0.0
H165 H 0.97629 0.91752 0.91036 0.0
H166 H 0.83918 0.81911 0.87538 0.0
S167 S 0.69264 0.88132 0.98823 0.0
N168 N 0.80571 0.93321 0.99038 0.0
N169 N 0.65642 0.82637 0.95192 0.0
C170 C 0.73777 0.85011 0.93971 0.0
C171 C 0.81867 0.90775 0.96054 0.0
C172 C 0.95626 0.85143 0.25788 0.0
C173 C 0.98124 0.86267 0.29103 0.0
C174 C 0.93195 0.76895 0.23966 0.0
C175 C 0.93404 0.69635 0.25397 0.0
H176 H 0.96262 0.9093 0.24552 0.0
H177 H 0.92118 0.76595 0.21375 0.0
S178 S 0.98505 0.68794 0.34038 0.0
N179 N 0.99647 0.79091 0.33806 0.0
N180 N 0.95462 0.63707 0.30341 0.0
C181 C 0.95116 0.7037 0.28747 0.0
C182 C 0.97383 0.78685 0.30617 0.0
C183 C 0.27121 0.03097 0.61055 0.0
C184 C 0.24342 0.96501 0.63343 0.0
C185 C 0.32875 0.03422 0.58679 0.0
C186 C 0.35849 0.97012 0.58455 0.0
H187 H 0.25231 0.08336 0.61201 0.0
H188 H 0.35179 0.08869 0.57046 0.0
S189 S 0.29691 0.77779 0.63666 0.0
N190 N 0.24479 0.83035 0.65115 0.0
N191 N 0.35065 0.83492 0.60582 0.0
C192 C 0.32671 0.90045 0.60606 0.0
C193 C 0.26984 0.89839 0.63072 0.0
C194 C 0.42717 0.26046 0.95723 0.0
C195 C 0.35947 0.2683 0.97304 0.0
C196 C 0.48393 0.3267 0.93681 0.0
C197 C 0.47522 0.40349 0.9312 0.0
H198 H 0.4339 0.20041 0.95947 0.0
H199 H 0.53181 0.31482 0.92413 0.0
S200 S 0.31857 0.46421 0.97057 0.0
N201 N 0.29429 0.36483 0.98458 0.0
N202 N 0.40107 0.48959 0.94619 0.0
C203 C 0.41258 0.416 0.94871 0.0
C204 C 0.35484 0.34849 0.96967 0.0
C205 C 0.05776 0.33302 0.2982 0.0
C206 C 0.14412 0.34375 0.30535 0.0
C207 C 0.04843 0.39457 0.27926 0.0
C208 C 0.12524 0.46968 0.26708 0.0
H209 H 0.99638 0.27361 0.30562 0.0
H210 H 0.97999 0.38094 0.27313 0.0
S211 S 0.36814 0.5361 0.28366 0.0
N212 N 0.30879 0.44056 0.30215 0.0
N213 N 0.29178 0.55697 0.26694 0.0
C214 C 0.21269 0.48505 0.27625 0.0
C215 C 0.22196 0.42184 0.29525 0.0
loop_
_geom_bond_atom_site_label_1
_geom_bond_atom_site_label_2
_geom_bond_distance
_geom_bond_site_symmetry_2
_ccdc_geom_bond_type
Zn0 O3 2.031 1_556 S
Zn0 O5 2.049 1_565 S
Zn0 O10 2.067 . S
Zn1 O2 1.962 . S
Zn1 O4 1.986 . S
Zn1 O6 1.996 . S
Zn1 O9 1.943 . S
O2 Zn1 1.962 . S
O2 C7 1.254 1_545 S
O3 Zn0 2.031 1_554 S
O3 C7 1.269 . S
O4 Zn1 1.986 . S
O4 C11 1.262 . S
O5 Zn0 2.049 1_545 S
O5 C13 1.260 . S
O6 Zn1 1.996 . S
O6 C13 1.257 1_554 S
C7 O2 1.254 1_565 S
C7 O3 1.269 . S
C8 O9 1.249 1_666 S
C8 O10 1.270 1_655 S
O9 Zn1 1.943 . S
O9 C8 1.249 1_444 S
O10 Zn0 2.067 . S
O10 C8 1.270 1_455 S
C11 O4 1.262 . S
C11 O12 1.232 . S
O12 C11 1.232 . S
C13 O5 1.260 . S
C13 O6 1.257 1_556 S
Zn14 O17 2.031 . S
Zn14 O19 2.049 . S
Zn14 O24 2.067 . S
Zn15 O16 1.962 . S
Zn15 O18 1.986 1_455 S
Zn15 O20 1.996 . S
Zn15 O23 1.943 1_545 S
O16 Zn15 1.962 . S
O16 C21 1.254 . S
O17 Zn14 2.031 . S
O17 C21 1.269 . S
O18 Zn15 1.986 1_655 S
O18 C25 1.262 . S
O19 Zn14 2.049 . S
O19 C27 1.260 . S
O20 Zn15 1.996 . S
O20 C27 1.257 . S
C21 O16 1.254 . S
C21 O17 1.269 . S
C22 O23 1.249 . S
C22 O24 1.270 1_565 S
O23 Zn15 1.943 1_565 S
O23 C22 1.249 . S
O24 Zn14 2.067 . S
O24 C22 1.270 1_545 S
C25 O18 1.262 . S
C25 O26 1.232 . S
O26 C25 1.232 . S
C27 O19 1.260 . S
C27 O20 1.257 . S
Zn28 O31 2.031 1_565 S
Zn28 O33 2.049 . S
Zn28 O38 2.067 1_565 S
Zn29 O30 1.962 1_545 S
Zn29 O32 1.986 1_455 S
Zn29 O34 1.996 1_445 S
Zn29 O37 1.943 . S
O30 Zn29 1.962 1_565 S
O30 C35 1.254 1_565 S
O31 Zn28 2.031 1_545 S
O31 C35 1.269 . S
O32 Zn29 1.986 1_655 S
O32 C39 1.262 . S
O33 Zn28 2.049 . S
O33 C41 1.260 1_455 S
O34 Zn29 1.996 1_665 S
O34 C41 1.257 . S
C35 O30 1.254 1_545 S
C35 O31 1.269 . S
C36 O37 1.249 . S
C36 O38 1.270 . S
O37 Zn29 1.943 . S
O37 C36 1.249 . S
O38 Zn28 2.067 1_545 S
O38 C36 1.270 . S
C39 O32 1.262 . S
C39 O40 1.232 1_655 S
O40 C39 1.232 1_455 S
C41 O33 1.260 1_655 S
C41 O34 1.257 . S
C42 O44 1.247 . S
C42 O46 1.258 1_455 S
C43 O50 1.247 . S
C43 O51 1.258 . S
O44 C42 1.247 . S
O44 Zn45 2.028 . S
Zn45 O44 2.028 . S
Zn45 O49 2.035 . S
Zn45 O51 2.035 . S
Zn45 O52 2.028 . S
O46 C42 1.258 1_655 S
O46 Zn47 2.035 . S
Zn47 O46 2.035 . S
Zn47 O48 2.028 . S
Zn47 O50 2.028 1_655 S
Zn47 O53 2.035 1_655 S
O48 Zn47 2.028 . S
O48 C54 1.247 1_655 S
O49 Zn45 2.035 . S
O49 C54 1.258 . S
O50 C43 1.247 . S
O50 Zn47 2.028 1_455 S
O51 C43 1.258 . S
O51 Zn45 2.035 . S
O52 Zn45 2.028 . S
O52 C55 1.247 . S
O53 Zn47 2.035 1_455 S
O53 C55 1.258 . S
C54 O48 1.247 1_455 S
C54 O49 1.258 . S
C55 O52 1.247 . S
C55 O53 1.258 . S
C56 O58 1.247 1_545 S
C56 O60 1.258 . S
C57 O64 1.247 . S
C57 O65 1.258 1_545 S
O58 C56 1.247 1_565 S
O58 Zn59 2.028 . S
Zn59 O58 2.028 . S
Zn59 O63 2.035 . S
Zn59 O65 2.035 . S
Zn59 O66 2.028 . S
O60 C56 1.258 . S
O60 Zn61 2.035 . S
Zn61 O60 2.035 . S
Zn61 O62 2.028 . S
Zn61 O64 2.028 . S
Zn61 O67 2.035 . S
O62 Zn61 2.028 . S
O62 C68 1.247 . S
O63 Zn59 2.035 . S
O63 C68 1.258 1_565 S
O64 C57 1.247 . S
O64 Zn61 2.028 . S
O65 C57 1.258 1_565 S
O65 Zn59 2.035 . S
O66 Zn59 2.028 . S
O66 C69 1.247 1_565 S
O67 Zn61 2.035 . S
O67 C69 1.258 . S
C68 O62 1.247 . S
C68 O63 1.258 1_545 S
C69 O66 1.247 1_545 S
C69 O67 1.258 . S
C70 O72 1.247 . S
C70 O74 1.258 . S
C71 O78 1.247 . S
C71 O79 1.258 . S
O72 C70 1.247 . S
O72 Zn73 2.028 . S
Zn73 O72 2.028 . S
Zn73 O77 2.035 . S
Zn73 O79 2.035 . S
Zn73 O80 2.028 . S
O74 C70 1.258 . S
O74 Zn75 2.035 . S
Zn75 O74 2.035 . S
Zn75 O76 2.028 . S
Zn75 O78 2.028 . S
Zn75 O81 2.035 . S
O76 Zn75 2.028 . S
O76 C82 1.247 . S
O77 Zn73 2.035 . S
O77 C82 1.258 . S
O78 C71 1.247 . S
O78 Zn75 2.028 . S
O79 C71 1.258 . S
O79 Zn73 2.035 . S
O80 Zn73 2.028 . S
O80 C83 1.247 . S
O81 Zn75 2.035 . S
O81 C83 1.258 . S
C82 O76 1.247 . S
C82 O77 1.258 . S
C83 O80 1.247 . S
C83 O81 1.258 . S
C84 C85 1.369 . S
C84 C86 1.419 . S
C84 H88 0.930 . S
C85 C84 1.369 . S
C85 C94 1.429 . S
C86 C84 1.419 . S
C86 C87 1.363 . S
C86 H89 0.929 . S
C87 C86 1.363 . S
C87 C93 1.428 . S
H88 C84 0.930 . S
H89 C86 0.929 . S
S90 N91 1.613 . S
S90 N92 1.610 . S
N91 S90 1.613 . S
N91 C94 1.350 . S
N92 S90 1.610 . S
N92 C93 1.351 . S
C93 C87 1.428 . S
C93 N92 1.351 . S
C93 C94 1.434 . S
C94 C85 1.429 . S
C94 N91 1.350 . S
C94 C93 1.434 . S
C95 C96 1.369 . S
C95 C97 1.419 . S
C95 H99 0.930 . S
C96 C95 1.369 . S
C96 C105 1.429 1_545 S
C97 C95 1.419 . S
C97 C98 1.363 . S
C97 H100 0.929 . S
C98 C97 1.363 . S
C98 C104 1.428 1_545 S
H99 C95 0.930 . S
H100 C97 0.929 . S
S101 N102 1.613 . S
S101 N103 1.610 . S
N102 S101 1.613 . S
N102 C105 1.350 . S
N103 S101 1.610 . S
N103 C104 1.351 . S
C104 C98 1.428 1_565 S
C104 N103 1.351 . S
C104 C105 1.434 . S
C105 C96 1.429 1_565 S
C105 N102 1.350 . S
C105 C104 1.434 . S
C106 C107 1.369 . S
C106 C108 1.419 . S
C106 H110 0.930 . S
C107 C106 1.369 . S
C107 C116 1.429 . S
C108 C106 1.419 . S
C108 C109 1.363 . S
C108 H111 0.929 . S
C109 C108 1.363 . S
C109 C115 1.428 . S
H110 C106 0.930 . S
H111 C108 0.929 . S
S112 N113 1.613 . S
S112 N114 1.610 . S
N113 S112 1.613 . S
N113 C116 1.350 . S
N114 S112 1.610 . S
N114 C115 1.351 . S
C115 C109 1.428 . S
C115 N114 1.351 . S
C115 C116 1.434 . S
C116 C107 1.429 . S
C116 N113 1.350 . S
C116 C115 1.434 . S
C117 C118 1.369 . S
C117 C119 1.419 . S
C117 H121 0.930 . S
C118 C117 1.369 . S
C118 C127 1.429 . S
C119 C117 1.419 . S
C119 C120 1.363 . S
C119 H122 0.929 . S
C120 C119 1.363 . S
C120 C126 1.428 . S
H121 C117 0.930 . S
H122 C119 0.929 . S
S123 N124 1.613 1_655 S
S123 N125 1.610 . S
N124 S123 1.613 1_455 S
N124 C127 1.350 . S
N125 S123 1.610 . S
N125 C126 1.351 1_655 S
C126 C120 1.428 . S
C126 N125 1.351 1_455 S
C126 C127 1.434 . S
C127 C118 1.429 . S
C127 N124 1.350 . S
C127 C126 1.434 . S
C128 C129 1.369 . S
C128 C130 1.419 . S
C128 H132 0.930 . S
C129 C128 1.369 . S
C129 C138 1.429 . S
C130 C128 1.419 . S
C130 C131 1.363 . S
C130 H133 0.929 . S
C131 C130 1.363 . S
C131 C137 1.428 . S
H132 C128 0.930 . S
H133 C130 0.929 . S
S134 N135 1.613 1_565 S
S134 N136 1.610 . S
N135 S134 1.613 1_545 S
N135 C138 1.350 . S
N136 S134 1.610 . S
N136 C137 1.351 1_565 S
C137 C131 1.428 . S
C137 N136 1.351 1_545 S
C137 C138 1.434 . S
C138 C129 1.429 . S
C138 N135 1.350 . S
C138 C137 1.434 . S
C139 C140 1.369 . S
C139 C141 1.419 . S
C139 H143 0.930 . S
C140 C139 1.369 . S
C140 C149 1.429 . S
C141 C139 1.419 . S
C141 C142 1.363 . S
C141 H144 0.929 . S
C142 C141 1.363 . S
C142 C148 1.428 . S
H143 C139 0.930 . S
H144 C141 0.929 . S
S145 N146 1.613 . S
S145 N147 1.610 . S
N146 S145 1.613 . S
N146 C149 1.350 . S
N147 S145 1.610 . S
N147 C148 1.351 . S
C148 C142 1.428 . S
C148 N147 1.351 . S
C148 C149 1.434 . S
C149 C140 1.429 . S
C149 N146 1.350 . S
C149 C148 1.434 . S
C150 C151 1.369 . S
C150 C152 1.419 . S
C150 H154 0.930 1_545 S
C151 C150 1.369 . S
C151 C160 1.429 . S
C152 C150 1.419 . S
C152 C153 1.363 . S
C152 H155 0.929 1_545 S
C153 C152 1.363 . S
C153 C159 1.428 . S
H154 C150 0.930 1_565 S
H155 C152 0.929 1_565 S
S156 N157 1.613 . S
S156 N158 1.610 . S
N157 S156 1.613 . S
N157 C160 1.350 . S
N158 S156 1.610 . S
N158 C159 1.351 . S
C159 C153 1.428 . S
C159 N158 1.351 . S
C159 C160 1.434 . S
C160 C151 1.429 . S
C160 N157 1.350 . S
C160 C159 1.434 . S
C161 C162 1.369 . S
C161 C163 1.419 . S
C161 H165 0.933 . S
C162 C161 1.369 . S
C162 C171 1.429 . S
C163 C161 1.419 . S
C163 C164 1.363 . S
C163 H166 0.929 . S
C164 C163 1.363 . S
C164 C170 1.428 . S
H165 C161 0.933 . S
H166 C163 0.929 . S
S167 N168 1.613 . S
S167 N169 1.610 . S
N168 S167 1.613 . S
N168 C171 1.350 . S
N169 S167 1.610 . S
N169 C170 1.351 . S
C170 C164 1.428 . S
C170 N169 1.351 . S
C170 C171 1.434 . S
C171 C162 1.429 . S
C171 N168 1.350 . S
C171 C170 1.434 . S
C172 C173 1.369 . S
C172 C174 1.419 . S
C172 H176 0.930 . S
C173 C172 1.369 . S
C173 C182 1.429 . S
C174 C172 1.419 . S
C174 C175 1.363 . S
C174 H177 0.929 . S
C175 C174 1.363 . S
C175 C181 1.428 . S
H176 C172 0.930 . S
H177 C174 0.929 . S
S178 N179 1.613 . S
S178 N180 1.610 1_655 S
N179 S178 1.613 . S
N179 C182 1.350 1_655 S
N180 S178 1.610 1_455 S
N180 C181 1.351 . S
C181 C175 1.428 . S
C181 N180 1.351 . S
C181 C182 1.434 . S
C182 C173 1.429 . S
C182 N179 1.350 1_455 S
C182 C181 1.434 . S
C183 C184 1.369 . S
C183 C185 1.419 . S
C183 H187 0.930 . S
C184 C183 1.369 . S
C184 C193 1.429 1_545 S
C185 C183 1.419 . S
C185 C186 1.363 . S
C185 H188 0.929 . S
C186 C185 1.363 . S
C186 C192 1.428 . S
H187 C183 0.930 . S
H188 C185 0.929 . S
S189 N190 1.613 . S
S189 N191 1.610 . S
N190 S189 1.613 . S
N190 C193 1.350 . S
N191 S189 1.610 . S
N191 C192 1.351 1_565 S
C192 C186 1.428 . S
C192 N191 1.351 1_545 S
C192 C193 1.434 1_545 S
C193 C184 1.429 1_565 S
C193 N190 1.350 . S
C193 C192 1.434 1_565 S
C194 C195 1.369 . S
C194 C196 1.419 . S
C194 H198 0.930 . S
C195 C194 1.369 . S
C195 C204 1.429 . S
C196 C194 1.419 . S
C196 C197 1.363 . S
C196 H199 0.929 . S
C197 C196 1.363 . S
C197 C203 1.428 . S
H198 C194 0.930 . S
H199 C196 0.929 . S
S200 N201 1.613 . S
S200 N202 1.610 . S
N201 S200 1.613 . S
N201 C204 1.350 . S
N202 S200 1.610 . S
N202 C203 1.351 . S
C203 C197 1.428 . S
C203 N202 1.351 . S
C203 C204 1.434 . S
C204 C195 1.429 . S
C204 N201 1.350 . S
C204 C203 1.434 . S
C205 C206 1.369 . S
C205 C207 1.419 . S
C205 H209 0.930 1_455 S
C206 C205 1.369 . S
C206 C215 1.429 . S
C207 C205 1.419 . S
C207 C208 1.363 . S
C207 H210 0.929 1_455 S
C208 C207 1.363 . S
C208 C214 1.428 . S
H209 C205 0.930 1_655 S
H210 C207 0.929 1_655 S
S211 N212 1.613 . S
S211 N213 1.610 . S
N212 S211 1.613 . S
N212 C215 1.350 . S
N213 S211 1.610 . S
N213 C214 1.351 . S
C214 C208 1.428 . S
C214 N213 1.351 . S
C214 C215 1.434 . S
C215 C206 1.429 . S
C215 N212 1.350 . S
C215 C214 1.434 . S
C87 C43 1.380 . S
C85 C11 1.361 . S
C96 C25 1.415 . S
C98 C69 1.438 . S
C107 C41 1.397 . S
C109 C71 1.453 . S
C118 C7 1.422 . S
C120 C55 1.420 . S
C131 C57 1.470 . S
C129 C21 1.467 . S
C140 C36 1.406 . S
C142 C83 1.476 . S
C153 C56 1.429 . S
C151 C39 1.408 . S
C162 C8 1.406 . S
C164 C82 1.471 . S
C175 C42 1.524 . S
C173 C22 1.451 . S
C186 C68 1.463 . S
C184 C35 1.463 . S
C197 C70 1.449 . S
C195 C13 1.384 . S
C206 C27 1.443 . S
C208 C54 1.486 . S
