# Generated by pormake.
# Topology pts, (4,4)-cn, num edge types: 1
# Building blocks:
#     Node 0, Type 0, BuildingBlock: NAWXER_clean_sbu_0, # of connection points: 4
#     Node 1, Type 0, BuildingBlock: NAWXER_clean_sbu_0, # of connection points: 4
#     Node 2, Type 1, BuildingBlock: QUQFOY_clean_sbu_1, # of connection points: 4
#     Node 3, Type 1, BuildingBlock: QUQFOY_clean_sbu_1, # of connection points: 4
#     Edge 4, Type (0, 1), None
#     Edge 5, Type (0, 1), None
#     Edge 6, Type (0, 1), None
#     Edge 7, Type (0, 1), None
#     Edge 8, Type (0, 1), None
#     Edge 9, Type (0, 1), None
#     Edge 10, Type (0, 1), None
#     Edge 11, Type (0, 1), None
# Relax obj value: 0.105
# Max RMSD: 0.237
# Mean RMSD: 0.137
data_MOF--net-pts--node1-NAWXER_clean_sbu_0--node2-QUQFOY_clean_sbu_1--edge1-none
_symmetry_space_group_name_H-M    P1
_symmetry_Int_Tables_number       1
_symmetry_cell_setting            triclinic
loop_
_symmetry_equiv_pos_as_xyz
'x, y, z'
_cell_length_a     10.31702
_cell_length_b     10.008683
_cell_length_c     17.765334
_cell_angle_alpha  89.999975
_cell_angle_beta   89.999971
_cell_angle_gamma 89.99729
loop_
_atom_site_label
_atom_site_type_symbol
_atom_site_fract_x
_atom_site_fract_y
_atom_site_fract_z
_atom_type_partial_charge
C0 C 0.28817 1.01054 0.91306 0.0
C1 C 0.63576 1.01052 0.11035 0.0
O2 O 0.32889 0.89985 0.9406 0.0
Zn3 Zn 0.46197 0.97081 0.0117 0.0
O4 O 0.33517 0.12017 0.936 0.0
Zn5 Zn 0.46197 0.19967 0.0117 0.0
O6 O 0.59506 0.27063 0.9406 0.0
O7 O 0.58878 1.05031 0.936 0.0
O8 O 0.58877 0.12016 0.0874 0.0
O9 O 0.59506 0.89984 0.0828 0.0
O10 O 0.33517 1.05032 0.0874 0.0
O11 O 0.32888 0.27064 0.0828 0.0
C12 C 0.63578 0.15994 0.91306 0.0
C13 C 0.28819 0.15996 0.11035 0.0
C14 C 0.89652 0.76116 0.41004 0.0
C15 C 0.89649 0.40928 0.61333 0.0
O16 O 0.78619 0.72262 0.43535 0.0
Zn17 Zn 0.84594 0.58527 0.5117 0.0
O18 O -0.00023 0.71212 0.43654 0.0
Zn19 Zn 0.078 0.58521 0.5117 0.0
O20 O 0.13776 0.44786 0.43535 0.0
O21 O 0.92417 0.45836 0.43654 0.0
O22 O -0.00025 0.45832 0.58684 0.0
O23 O 0.78616 0.44793 0.58805 0.0
O24 O 0.9242 0.71216 0.58684 0.0
O25 O 0.13778 0.72254 0.58805 0.0
C26 C 0.02742 0.40932 0.41004 0.0
C27 C 0.02746 0.76119 0.61333 0.0
O28 O 0.8381 0.936 0.15615 0.0
Cd29 Cd -0.0254 0.964 0.2356 0.0
Cd30 Cd 0.94934 0.20648 0.2356 0.0
O31 O 0.76797 0.13074 0.19665 0.0
O32 O -0.01543 0.79052 0.28815 0.0
O33 O 0.89059 0.96748 0.33952 0.0
C34 C 0.91553 0.84109 0.3418 0.0
C35 C 0.00841 0.32939 0.3418 0.0
C36 C 0.74898 1.02186 0.15995 0.0
C37 C 0.17497 0.14862 0.15995 0.0
O38 O 0.08584 0.23448 0.15615 0.0
O39 O 0.15597 1.03974 0.19665 0.0
O40 O 0.93938 0.37996 0.28815 0.0
O41 O 0.03335 0.203 0.33952 0.0
O42 O 0.83809 0.23448 0.86723 0.0
Cd43 Cd -0.02541 0.20649 0.78779 0.0
Cd44 Cd 0.94936 0.96399 0.78779 0.0
O45 O 0.76798 1.03972 0.82675 0.0
O46 O -0.01548 0.37997 0.73523 0.0
O47 O 0.89059 0.20299 0.68387 0.0
C48 C 0.91549 0.32939 0.68159 0.0
C49 C 0.00845 0.84109 0.68159 0.0
C50 C 0.74898 0.14861 0.86345 0.0
C51 C 0.17497 1.02186 0.86345 0.0
O52 O 0.08586 0.936 0.86723 0.0
O53 O 0.15597 0.13075 0.82675 0.0
O54 O 0.93943 0.79051 0.73523 0.0
O55 O 0.03336 0.96749 0.68387 0.0
loop_
_geom_bond_atom_site_label_1
_geom_bond_atom_site_label_2
_geom_bond_distance
_geom_bond_site_symmetry_2
_ccdc_geom_bond_type
C0 O2 1.246 . S
C0 O4 1.259 1_565 S
C1 O8 1.254 . S
C1 O9 1.251 1_545 S
O2 C0 1.246 . S
O2 Zn3 2.028 1_556 S
Zn3 O2 2.028 1_554 S
Zn3 O7 2.035 1_554 S
Zn3 O9 2.035 . S
Zn3 O10 2.028 . S
O4 C0 1.259 1_545 S
O4 Zn5 2.035 1_556 S
Zn5 O4 2.035 1_554 S
Zn5 O6 2.028 1_554 S
Zn5 O8 2.028 . S
Zn5 O11 2.035 . S
O6 Zn5 2.028 1_556 S
O6 C12 1.254 . S
O7 Zn3 2.035 1_556 S
O7 C12 1.251 1_565 S
O8 C1 1.254 . S
O8 Zn5 2.028 . S
O9 C1 1.251 1_565 S
O9 Zn3 2.035 . S
O10 Zn3 2.028 . S
O10 C13 1.246 . S
O11 Zn5 2.035 . S
O11 C13 1.259 1_545 S
C12 O6 1.254 . S
C12 O7 1.251 1_545 S
C13 O10 1.246 . S
C13 O11 1.259 1_565 S
C14 O16 1.249 . S
C14 O18 1.256 1_655 S
C15 O22 1.251 . S
C15 O23 1.254 1_455 S
O16 C14 1.249 . S
O16 Zn17 2.028 . S
Zn17 O16 2.028 . S
Zn17 O21 2.035 . S
Zn17 O23 2.035 . S
Zn17 O24 2.028 . S
O18 C14 1.256 1_455 S
O18 Zn19 2.035 . S
Zn19 O18 2.035 . S
Zn19 O20 2.028 . S
Zn19 O22 2.028 . S
Zn19 O25 2.035 . S
O20 Zn19 2.028 . S
O20 C26 1.251 . S
O21 Zn17 2.035 . S
O21 C26 1.254 1_655 S
O22 C15 1.251 . S
O22 Zn19 2.028 . S
O23 C15 1.254 1_655 S
O23 Zn17 2.035 . S
O24 Zn17 2.028 . S
O24 C27 1.249 . S
O25 Zn19 2.035 . S
O25 C27 1.256 1_455 S
C26 O20 1.251 . S
C26 O21 1.254 1_455 S
C27 O24 1.249 . S
C27 O25 1.256 1_655 S
O28 Cd29 2.223 1_655 S
O28 C36 1.315 . S
Cd29 O28 2.223 1_455 S
Cd29 O32 2.297 1_455 S
Cd29 O33 2.439 1_455 S
Cd29 O39 2.240 1_565 S
Cd30 O31 2.240 1_545 S
Cd30 O38 2.223 1_655 S
Cd30 O40 2.297 1_655 S
Cd30 O41 2.439 1_655 S
O31 Cd30 2.240 1_565 S
O31 C36 1.279 . S
O32 Cd29 2.297 1_655 S
O32 C34 1.247 . S
O33 Cd29 2.439 1_655 S
O33 C34 1.208 . S
C34 O32 1.247 . S
C34 O33 1.208 . S
C35 O40 1.247 . S
C35 O41 1.208 . S
C36 O28 1.315 . S
C36 O31 1.279 . S
C37 O38 1.315 . S
C37 O39 1.279 . S
O38 Cd30 2.223 1_455 S
O38 C37 1.315 . S
O39 Cd29 2.240 1_545 S
O39 C37 1.279 . S
O40 Cd30 2.297 1_455 S
O40 C35 1.247 . S
O41 Cd30 2.439 1_455 S
O41 C35 1.208 . S
O42 Cd43 2.223 1_655 S
O42 C50 1.315 . S
Cd43 O42 2.223 1_455 S
Cd43 O46 2.297 1_455 S
Cd43 O47 2.439 1_455 S
Cd43 O53 2.240 1_545 S
Cd44 O45 2.240 1_565 S
Cd44 O52 2.223 1_655 S
Cd44 O54 2.297 1_655 S
Cd44 O55 2.439 1_655 S
O45 Cd44 2.240 1_545 S
O45 C50 1.279 . S
O46 Cd43 2.297 1_655 S
O46 C48 1.247 . S
O47 Cd43 2.439 1_655 S
O47 C48 1.208 . S
C48 O46 1.247 . S
C48 O47 1.208 . S
C49 O54 1.247 . S
C49 O55 1.208 . S
C50 O42 1.315 . S
C50 O45 1.279 . S
C51 O52 1.315 . S
C51 O53 1.279 . S
O52 Cd44 2.223 1_455 S
O52 C51 1.315 . S
O53 Cd43 2.240 1_565 S
O53 C51 1.279 . S
O54 Cd44 2.297 1_455 S
O54 C49 1.247 . S
O55 Cd44 2.439 1_455 S
O55 C49 1.208 . S
C37 C13 1.814 1_545 S
C48 C15 1.662 1_655 S
C36 C1 1.811 1_565 S
C49 C27 1.663 1_455 S
C51 C0 1.811 . S
C35 C26 1.662 . S
C50 C12 1.816 . S
C14 C34 1.661 . S
