# Generated by pormake.
# Topology pth, (4,4)-cn, num edge types: 1
# Building blocks:
#     Node 0, Type 0, BuildingBlock: CEKHIL_clean_sbu_0, # of connection points: 4
#     Node 1, Type 0, BuildingBlock: CEKHIL_clean_sbu_0, # of connection points: 4
#     Node 2, Type 0, BuildingBlock: CEKHIL_clean_sbu_0, # of connection points: 4
#     Node 3, Type 1, BuildingBlock: NAWXER_clean_sbu_0, # of connection points: 4
#     Node 4, Type 1, BuildingBlock: NAWXER_clean_sbu_0, # of connection points: 4
#     Node 5, Type 1, BuildingBlock: NAWXER_clean_sbu_0, # of connection points: 4
#     Edge 6, Type (0, 1), BuildingBlock: AJUNOK_clean_linker_0, # of connection points: 2
#     Edge 7, Type (0, 1), BuildingBlock: AJUNOK_clean_linker_0, # of connection points: 2
#     Edge 8, Type (0, 1), BuildingBlock: AJUNOK_clean_linker_0, # of connection points: 2
#     Edge 9, Type (0, 1), BuildingBlock: AJUNOK_clean_linker_0, # of connection points: 2
#     Edge 10, Type (0, 1), BuildingBlock: AJUNOK_clean_linker_0, # of connection points: 2
#     Edge 11, Type (0, 1), BuildingBlock: AJUNOK_clean_linker_0, # of connection points: 2
#     Edge 12, Type (0, 1), BuildingBlock: AJUNOK_clean_linker_0, # of connection points: 2
#     Edge 13, Type (0, 1), BuildingBlock: AJUNOK_clean_linker_0, # of connection points: 2
#     Edge 14, Type (0, 1), BuildingBlock: AJUNOK_clean_linker_0, # of connection points: 2
#     Edge 15, Type (0, 1), BuildingBlock: AJUNOK_clean_linker_0, # of connection points: 2
#     Edge 16, Type (0, 1), BuildingBlock: AJUNOK_clean_linker_0, # of connection points: 2
#     Edge 17, Type (0, 1), BuildingBlock: AJUNOK_clean_linker_0, # of connection points: 2
# Relax obj value: 0.003
# Max RMSD: 0.042
# Mean RMSD: 0.026
data_MOF--net-pth--node1-CEKHIL_clean_sbu_0--node2-NAWXER_clean_sbu_0--edge1-AJUNOK_clean_linker_0
_symmetry_space_group_name_H-M    P1
_symmetry_Int_Tables_number       1
_symmetry_cell_setting            triclinic
loop_
_symmetry_equiv_pos_as_xyz
'x, y, z'
_cell_length_a     16.507703
_cell_length_b     16.610982
_cell_length_c     40.89127
_cell_angle_alpha  90.778457
_cell_angle_beta   90.189366
_cell_angle_gamma 120.00566
loop_
_atom_site_label
_atom_site_type_symbol
_atom_site_fract_x
_atom_site_fract_y
_atom_site_fract_z
_atom_type_partial_charge
Co0 Co 0.05333 0.04498 0.10164 0.0
O1 O 0.99367 0.94126 0.13118 0.0
O2 O 0.11886 0.9756 0.10208 0.0
C3 C 0.04922 0.14806 0.13787 0.0
O4 O 0.14256 0.14422 0.07027 0.0
Co5 Co 0.97599 0.16886 0.07725 0.0
O6 O 0.10271 0.25173 0.06001 0.0
C7 C 0.90062 0.97686 0.05005 0.0
C8 C 0.06089 0.92451 0.12435 0.0
C9 C 0.15917 0.2209 0.05729 0.0
O10 O 0.96611 0.96829 0.06427 0.0
O11 O 0.89027 0.04762 0.0546 0.0
O12 O 0.11561 0.1276 0.13944 0.0
O13 O 0.98841 0.10633 0.11485 0.0
Co14 Co 0.05535 0.07403 0.41032 0.0
O15 O 0.02853 0.14062 0.37761 0.0
O16 O 0.14882 0.20561 0.41217 0.0
C17 C 0.03497 0.95505 0.37691 0.0
O18 O 0.11014 0.02916 0.44605 0.0
Co19 Co 0.91046 0.87493 0.43167 0.0
O20 O 0.01838 0.87601 0.45365 0.0
C21 C 0.88962 0.03533 0.45255 0.0
C22 C 0.1035 0.2149 0.38785 0.0
C23 C 0.09455 0.95201 0.45876 0.0
O24 O 0.97288 0.09277 0.44272 0.0
O25 O 0.85033 0.94731 0.44757 0.0
O26 O 0.11337 0.03371 0.37741 0.0
O27 O 0.96941 0.9532 0.39455 0.0
Co28 Co 0.03687 0.04397 0.74406 0.0
O29 O 0.1258 0.12286 0.71153 0.0
O30 O 0.13637 0.01586 0.73956 0.0
C31 C 0.90588 1.00653 0.71422 0.0
O32 O 0.96072 0.94485 0.7778 0.0
Co33 Co 0.89412 0.08617 0.77678 0.0
O34 O 0.83921 0.95916 0.79481 0.0
C35 C 0.09393 0.2006 0.79445 0.0
C36 C 0.17151 0.0796 0.71751 0.0
C37 C 0.88431 0.91553 0.79379 0.0
O38 O 0.10974 0.14126 0.77926 0.0
O39 O 0.01365 0.19482 0.79408 0.0
O40 O 0.95145 0.96233 0.7094 0.0
O41 O 0.94398 0.07476 0.73512 0.0
C42 C 1.01072 0.64417 0.30033 0.0
C43 C 0.01369 0.40789 0.22535 0.0
O44 O 0.08957 0.6592 0.28953 0.0
Zn45 Zn 0.1525 0.60465 0.2587 0.0
O46 O 0.93621 0.56999 0.29136 0.0
Zn47 Zn 0.9973 0.5196 0.26238 0.0
O48 O 0.07294 0.4908 0.2972 0.0
O49 O 0.22575 0.57663 0.29078 0.0
O50 O 0.93843 0.40169 0.23629 0.0
O51 O 0.09218 0.47983 0.23218 0.0
O52 O 0.19829 0.69879 0.22343 0.0
O53 O 0.0446 0.61975 0.22585 0.0
C54 C 0.156 0.51372 0.30619 0.0
C55 C 0.11886 0.68388 0.21294 0.0
C56 C 0.60913 0.9764 0.62867 0.0
C57 C 0.3822 0.96857 0.54767 0.0
O58 O 0.5412 0.90327 0.61588 0.0
Zn59 Zn 0.49274 0.96547 0.58804 0.0
O60 O 0.62341 0.05637 0.6201 0.0
Zn61 Zn 0.56803 0.11646 0.58735 0.0
O62 O 0.52825 0.18328 0.61744 0.0
O63 O 0.44774 0.03075 0.62277 0.0
O64 O 0.44805 0.05016 0.55584 0.0
O65 O 0.3805 0.89813 0.56041 0.0
O66 O 0.59873 0.02549 0.55258 0.0
O67 O 0.67191 0.17866 0.55607 0.0
C68 C 0.46461 0.11192 0.63167 0.0
C69 C 0.66212 0.10472 0.54252 0.0
C70 C 0.45735 0.42676 0.96466 0.0
C71 C 0.67656 0.6094 0.87649 0.0
O72 O 0.45088 0.49427 0.95302 0.0
Zn73 Zn 0.5071 0.59765 0.91763 0.0
O74 O 0.5167 0.40706 0.95254 0.0
Zn75 Zn 0.5696 0.50778 0.91965 0.0
O76 O 0.63307 0.6267 0.95084 0.0
O77 O 0.56278 0.70916 0.94583 0.0
O78 O 0.67532 0.53946 0.88957 0.0
O79 O 0.61767 0.6337 0.88523 0.0
O80 O 0.39915 0.55765 0.88807 0.0
O81 O 0.45453 0.46134 0.88695 0.0
C82 C 0.62657 0.69778 0.95898 0.0
C83 C 0.39484 0.48349 0.87694 0.0
C84 C 0.96345 0.22797 0.15819 0.0
C85 C 0.03939 0.21167 0.16141 0.0
C86 C 0.95166 0.28756 0.17996 0.0
C87 C 0.01581 0.33352 0.2056 0.0
H88 H 0.91301 0.19529 0.13842 0.0
H89 H 0.89427 0.30045 0.17592 0.0
S90 S 0.22112 0.3085 0.22687 0.0
N91 N 0.17568 0.24207 0.19387 0.0
N92 N 0.15403 0.35386 0.23456 0.0
C93 C 0.09006 0.31541 0.20978 0.0
C94 C 0.10184 0.25469 0.18776 0.0
C95 C 0.73676 0.01441 0.47072 0.0
C96 C 0.83496 0.06904 0.47135 0.0
C97 C 0.68172 0.03194 0.49227 0.0
C98 C 0.722 0.10509 0.51548 0.0
H99 H 0.70183 0.95469 0.4543 0.0
H100 H 0.60678 0.98469 0.49174 0.0
S101 S 0.9748 0.27647 0.52475 0.0
N102 N 0.96996 0.20571 0.49502 0.0
N103 N 0.86551 0.23853 0.53583 0.0
C104 C 0.81942 0.16514 0.51481 0.0
C105 C 0.87614 0.14716 0.49266 0.0
C106 C 0.77897 0.74433 0.80027 0.0
C107 C 0.84883 0.83027 0.81325 0.0
C108 C 0.7302 0.66677 0.82045 0.0
C109 C 0.75036 0.67259 0.85415 0.0
H110 H 0.75777 0.73875 0.77485 0.0
H111 H 0.67135 0.60433 0.81016 0.0
S112 S 0.92925 0.88112 0.89961 0.0
N113 N 0.93823 0.9157 0.86142 0.0
N114 N 0.84691 0.77038 0.89922 0.0
C115 C 0.8238 0.75672 0.86688 0.0
C116 C 0.87295 0.83556 0.84646 0.0
C117 C 1.00424 0.79267 0.16313 0.0
C118 C 0.07666 0.85826 0.14382 0.0
C119 C 0.01903 0.73595 0.18449 0.0
C120 C 0.10748 0.7427 0.18804 0.0
H121 H 0.9355 0.78591 0.16218 0.0
H122 H 0.96033 0.68785 0.19903 0.0
S123 S 0.32054 0.90162 0.14219 0.0
N124 N 0.2402 0.92498 0.12868 0.0
N125 N 0.26807 0.81895 0.16936 0.0
C126 C 0.1804 0.8068 0.1684 0.0
C127 C 0.16494 0.86415 0.14617 0.0
C128 C 0.24833 0.03694 0.48892 0.0
C129 C 0.16727 0.95232 0.48079 0.0
C130 C 0.31707 0.04052 0.51006 0.0
C131 C 0.3086 0.95967 0.52418 0.0
H132 H 0.25888 0.10172 0.47913 0.0
H133 H 0.37731 0.10806 0.5155 0.0
S134 S 0.11184 0.71927 0.51019 0.0
N135 N 0.08385 0.78439 0.48807 0.0
N136 N 0.21328 0.79168 0.52783 0.0
C137 C 0.22877 0.87415 0.51596 0.0
C138 C 0.15825 0.87036 0.49434 0.0
C139 C 0.25497 0.27669 0.81951 0.0
C140 C 0.17132 0.27761 0.81395 0.0
C141 C 0.32718 0.34514 0.83901 0.0
C142 C 0.31974 0.41834 0.85384 0.0
H143 H 0.2645 0.22154 0.80927 0.0
H144 H 0.38908 0.33945 0.84284 0.0
S145 S 0.11846 0.45767 0.84528 0.0
N146 N 0.08751 0.36185 0.8236 0.0
N147 N 0.22358 0.49015 0.86026 0.0
C148 C 0.23802 0.42231 0.84765 0.0
C149 C 0.16386 0.35212 0.82781 0.0
C150 C 0.79021 0.05291 0.6967 0.0
C151 C 0.82207 0.98867 0.69463 0.0
C152 C 0.71873 0.04555 0.67614 0.0
C153 C 0.67459 0.97282 0.65287 0.0
H154 H 0.82295 0.11172 0.71357 0.0
H155 H 0.69927 0.09881 0.67804 0.0
S156 S 0.72551 0.7814 0.63931 0.0
N157 N 0.79965 0.84621 0.66862 0.0
N158 N 0.66382 0.83174 0.63025 0.0
C159 C 0.70198 0.90512 0.6516 0.0
C160 C 0.77611 0.91329 0.67236 0.0
C161 C 0.76592 0.91828 1.01031 0.0
C162 C 0.83224 0.90334 1.0271 0.0
C163 C 0.69933 0.85147 0.98879 0.0
C164 C 0.69576 0.76641 0.98288 0.0
H165 H 0.76504 0.98263 1.01363 0.0
H166 H 0.65085 0.86725 0.97648 0.0
S167 S 0.85166 0.69065 1.02086 0.0
N168 N 0.88871 0.79562 0.03647 0.0
N169 N 0.76396 0.66977 0.99605 0.0
C170 C 0.76126 0.74991 0.99955 0.0
C171 C 0.82925 0.81826 1.02157 0.0
C172 C 0.10431 0.87373 0.34662 0.0
C173 C 0.02427 0.87202 0.35884 0.0
C174 C 0.09807 0.79871 0.32866 0.0
C175 C 1.01126 0.71809 0.32164 0.0
H176 H 0.17298 0.93385 0.35083 0.0
H177 H 0.16286 0.80533 0.31981 0.0
S178 S 0.77981 0.6774 0.34885 0.0
N179 N 0.85477 0.78203 0.36358 0.0
N180 N 0.843 0.64073 0.32923 0.0
C181 C 0.93028 0.71453 0.33416 0.0
C182 C 0.93679 0.7914 0.35286 0.0
C183 C 0.28892 0.16233 0.67313 0.0
C184 C 0.25643 0.0981 0.69884 0.0
C185 C 0.36203 0.17251 0.65274 0.0
C186 C 0.40463 0.1183 0.65725 0.0
H187 H 0.25533 0.20252 0.66786 0.0
H188 H 0.38131 0.21884 0.6322 0.0
S189 S 0.35524 0.94976 0.72337 0.0
N190 N 0.28061 0.98702 0.72952 0.0
N191 N 0.41602 1.00531 0.69102 0.0
C192 C 0.37676 0.05816 0.68394 0.0
C193 C 0.30325 0.04828 0.70479 0.0
C194 C 0.27718 0.36745 0.03084 0.0
C195 C 0.24398 0.27305 0.03684 0.0
C196 C 0.3497 0.41671 1.00891 0.0
C197 C 0.39241 0.37405 0.99156 0.0
H198 H 0.2455 0.40354 0.04267 0.0
H199 H 0.37049 0.48879 1.00484 0.0
S200 S 0.33658 0.12973 1.00001 0.0
N201 N 0.26376 0.13966 1.02515 0.0
N202 N 0.39992 0.23285 0.98345 0.0
C203 C 0.36349 0.28091 0.99844 0.0
C204 C 0.28935 0.23034 1.02112 0.0
C205 C 0.20203 0.33813 0.34781 0.0
C206 C 0.13384 0.30537 0.37241 0.0
C207 C 0.21742 0.41376 0.32823 0.0
C208 C 0.16473 0.45838 0.33272 0.0
H209 H 0.23937 0.30148 0.34232 0.0
H210 H 0.26496 0.43215 0.30787 0.0
S211 S 0.98639 0.40544 0.39661 0.0
N212 N 0.01997 0.32809 0.40213 0.0
N213 N 0.0488 0.46992 0.36588 0.0
C214 C 0.1015 0.43008 0.3589 0.0
C215 C 0.0858 0.3534 0.37856 0.0
loop_
_geom_bond_atom_site_label_1
_geom_bond_atom_site_label_2
_geom_bond_distance
_geom_bond_site_symmetry_2
_ccdc_geom_bond_type
Co0 O1 2.216 1_445 S
Co0 O2 2.091 1_545 S
Co0 O4 2.004 . S
Co0 O10 2.021 1_445 S
Co0 O12 2.137 . S
Co0 O13 2.244 1_455 S
O1 Co0 2.216 1_665 S
O1 C8 1.247 1_655 S
O2 Co0 2.091 1_565 S
O2 C8 1.261 . S
C3 O12 1.247 . S
C3 O13 1.272 1_455 S
O4 Co0 2.004 . S
O4 C9 1.259 . S
Co5 O6 2.061 1_655 S
Co5 O11 2.052 . S
Co5 O13 2.135 . S
O6 Co5 2.061 1_455 S
O6 C9 1.235 . S
C7 O10 1.238 . S
C7 O11 1.241 1_565 S
C8 O1 1.247 1_455 S
C8 O2 1.261 . S
C9 O4 1.259 . S
C9 O6 1.235 . S
O10 Co0 2.021 1_665 S
O10 C7 1.238 . S
O11 Co5 2.052 . S
O11 C7 1.241 1_545 S
O12 Co0 2.137 . S
O12 C3 1.247 . S
O13 Co0 2.244 1_655 S
O13 C3 1.272 1_655 S
O13 Co5 2.135 . S
Co14 O15 2.216 1_455 S
Co14 O16 2.091 . S
Co14 O18 2.004 . S
Co14 O24 2.021 1_455 S
Co14 O26 2.137 . S
Co14 O27 2.244 1_445 S
O15 Co14 2.216 1_655 S
O15 C22 1.247 1_655 S
O16 Co14 2.091 . S
O16 C22 1.261 . S
C17 O26 1.247 1_565 S
C17 O27 1.272 1_455 S
O18 Co14 2.004 . S
O18 C23 1.259 . S
Co19 O20 2.061 1_655 S
Co19 O25 2.052 . S
Co19 O27 2.135 . S
O20 Co19 2.061 1_455 S
O20 C23 1.235 1_565 S
C21 O24 1.238 . S
C21 O25 1.241 1_545 S
C22 O15 1.247 1_455 S
C22 O16 1.261 . S
C23 O18 1.259 . S
C23 O20 1.235 1_545 S
O24 Co14 2.021 1_655 S
O24 C21 1.238 . S
O25 Co19 2.052 . S
O25 C21 1.241 1_565 S
O26 Co14 2.137 . S
O26 C17 1.247 1_545 S
O27 Co14 2.244 1_665 S
O27 C17 1.272 1_655 S
O27 Co19 2.135 . S
Co28 O29 2.216 . S
Co28 O30 2.091 1_545 S
Co28 O32 2.004 1_445 S
Co28 O38 2.021 . S
Co28 O40 2.137 1_445 S
Co28 O41 2.244 1_455 S
O29 Co28 2.216 . S
O29 C36 1.247 . S
O30 Co28 2.091 1_565 S
O30 C36 1.261 1_565 S
C31 O40 1.247 1_545 S
C31 O41 1.272 . S
O32 Co28 2.004 1_665 S
O32 C37 1.259 . S
Co33 O34 2.061 1_545 S
Co33 O39 2.052 1_655 S
Co33 O41 2.135 . S
O34 Co33 2.061 1_565 S
O34 C37 1.235 . S
C35 O38 1.238 . S
C35 O39 1.241 . S
C36 O29 1.247 . S
C36 O30 1.261 1_545 S
C37 O32 1.259 . S
C37 O34 1.235 . S
O38 Co28 2.021 . S
O38 C35 1.238 . S
O39 Co33 2.052 1_455 S
O39 C35 1.241 . S
O40 Co28 2.137 1_665 S
O40 C31 1.247 1_565 S
O41 Co28 2.244 1_655 S
O41 C31 1.272 . S
O41 Co33 2.135 . S
C42 O44 1.247 . S
C42 O46 1.258 1_455 S
C43 O50 1.247 1_455 S
C43 O51 1.258 . S
O44 C42 1.247 . S
O44 Zn45 2.028 . S
Zn45 O44 2.028 . S
Zn45 O49 2.035 . S
Zn45 O51 2.035 . S
Zn45 O52 2.028 . S
O46 C42 1.258 1_655 S
O46 Zn47 2.035 . S
Zn47 O46 2.035 . S
Zn47 O48 2.028 . S
Zn47 O50 2.028 . S
Zn47 O53 2.035 . S
O48 Zn47 2.028 . S
O48 C54 1.247 1_655 S
O49 Zn45 2.035 . S
O49 C54 1.258 . S
O50 C43 1.247 1_655 S
O50 Zn47 2.028 . S
O51 C43 1.258 . S
O51 Zn45 2.035 . S
O52 Zn45 2.028 . S
O52 C55 1.247 . S
O53 Zn47 2.035 . S
O53 C55 1.258 1_655 S
C54 O48 1.247 1_455 S
C54 O49 1.258 . S
C55 O52 1.247 . S
C55 O53 1.258 1_455 S
C56 O58 1.247 1_545 S
C56 O60 1.258 . S
C57 O64 1.247 . S
C57 O65 1.258 1_545 S
O58 C56 1.247 1_565 S
O58 Zn59 2.028 . S
Zn59 O58 2.028 . S
Zn59 O63 2.035 . S
Zn59 O65 2.035 . S
Zn59 O66 2.028 . S
O60 C56 1.258 . S
O60 Zn61 2.035 . S
Zn61 O60 2.035 . S
Zn61 O62 2.028 . S
Zn61 O64 2.028 . S
Zn61 O67 2.035 . S
O62 Zn61 2.028 . S
O62 C68 1.247 . S
O63 Zn59 2.035 . S
O63 C68 1.258 1_565 S
O64 C57 1.247 . S
O64 Zn61 2.028 . S
O65 C57 1.258 1_565 S
O65 Zn59 2.035 . S
O66 Zn59 2.028 . S
O66 C69 1.247 1_565 S
O67 Zn61 2.035 . S
O67 C69 1.258 . S
C68 O62 1.247 . S
C68 O63 1.258 1_545 S
C69 O66 1.247 1_545 S
C69 O67 1.258 . S
C70 O72 1.247 . S
C70 O74 1.258 . S
C71 O78 1.247 . S
C71 O79 1.258 . S
O72 C70 1.247 . S
O72 Zn73 2.028 . S
Zn73 O72 2.028 . S
Zn73 O77 2.035 . S
Zn73 O79 2.035 . S
Zn73 O80 2.028 . S
O74 C70 1.258 . S
O74 Zn75 2.035 . S
Zn75 O74 2.035 . S
Zn75 O76 2.028 . S
Zn75 O78 2.028 . S
Zn75 O81 2.035 . S
O76 Zn75 2.028 . S
O76 C82 1.247 . S
O77 Zn73 2.035 . S
O77 C82 1.258 . S
O78 C71 1.247 . S
O78 Zn75 2.028 . S
O79 C71 1.258 . S
O79 Zn73 2.035 . S
O80 Zn73 2.028 . S
O80 C83 1.247 . S
O81 Zn75 2.035 . S
O81 C83 1.258 . S
C82 O76 1.247 . S
C82 O77 1.258 . S
C83 O80 1.247 . S
C83 O81 1.258 . S
C84 C85 1.369 . S
C84 C86 1.419 . S
C84 H88 0.930 . S
C85 C84 1.369 . S
C85 C94 1.429 . S
C86 C84 1.419 . S
C86 C87 1.363 . S
C86 H89 0.929 . S
C87 C86 1.363 . S
C87 C93 1.428 . S
H88 C84 0.930 . S
H89 C86 0.929 . S
S90 N91 1.612 1_655 S
S90 N92 1.614 1_655 S
N91 S90 1.612 1_455 S
N91 C94 1.350 . S
N92 S90 1.614 1_455 S
N92 C93 1.351 . S
C93 C87 1.428 . S
C93 N92 1.351 . S
C93 C94 1.434 . S
C94 C85 1.429 . S
C94 N91 1.350 . S
C94 C93 1.434 . S
C95 C96 1.369 1_565 S
C95 C97 1.419 . S
C95 H99 0.930 . S
C96 C95 1.369 1_545 S
C96 C105 1.429 . S
C97 C95 1.419 . S
C97 C98 1.363 1_565 S
C97 H100 0.929 . S
C98 C97 1.363 1_545 S
C98 C104 1.428 . S
H99 C95 0.930 . S
H100 C97 0.929 . S
S101 N102 1.613 . S
S101 N103 1.610 . S
N102 S101 1.613 . S
N102 C105 1.350 . S
N103 S101 1.610 . S
N103 C104 1.351 . S
C104 C98 1.428 . S
C104 N103 1.351 . S
C104 C105 1.434 . S
C105 C96 1.429 . S
C105 N102 1.350 . S
C105 C104 1.434 . S
C106 C107 1.369 . S
C106 C108 1.419 . S
C106 H110 0.930 . S
C107 C106 1.369 . S
C107 C116 1.429 . S
C108 C106 1.419 . S
C108 C109 1.363 . S
C108 H111 0.929 . S
C109 C108 1.363 . S
C109 C115 1.428 . S
H110 C106 0.930 . S
H111 C108 0.929 . S
S112 N113 1.613 . S
S112 N114 1.610 . S
N113 S112 1.613 . S
N113 C116 1.350 . S
N114 S112 1.610 . S
N114 C115 1.351 . S
C115 C109 1.428 . S
C115 N114 1.351 . S
C115 C116 1.434 . S
C116 C107 1.429 . S
C116 N113 1.350 . S
C116 C115 1.434 . S
C117 C118 1.369 . S
C117 C119 1.419 . S
C117 H121 0.930 . S
C118 C117 1.369 . S
C118 C127 1.429 . S
C119 C117 1.419 . S
C119 C120 1.363 . S
C119 H122 0.929 . S
C120 C119 1.363 . S
C120 C126 1.428 . S
H121 C117 0.930 . S
H122 C119 0.929 . S
S123 N124 1.613 . S
S123 N125 1.610 . S
N124 S123 1.613 . S
N124 C127 1.350 . S
N125 S123 1.610 . S
N125 C126 1.351 . S
C126 C120 1.428 . S
C126 N125 1.351 . S
C126 C127 1.434 . S
C127 C118 1.429 . S
C127 N124 1.350 . S
C127 C126 1.434 . S
C128 C129 1.369 . S
C128 C130 1.419 . S
C128 H132 0.930 . S
C129 C128 1.369 . S
C129 C138 1.429 . S
C130 C128 1.419 . S
C130 C131 1.363 . S
C130 H133 0.929 . S
C131 C130 1.363 . S
C131 C137 1.428 . S
H132 C128 0.930 . S
H133 C130 0.929 . S
S134 N135 1.613 . S
S134 N136 1.610 . S
N135 S134 1.613 . S
N135 C138 1.350 1_565 S
N136 S134 1.610 . S
N136 C137 1.351 1_565 S
C137 C131 1.428 . S
C137 N136 1.351 1_545 S
C137 C138 1.434 . S
C138 C129 1.429 . S
C138 N135 1.350 1_545 S
C138 C137 1.434 . S
C139 C140 1.369 . S
C139 C141 1.419 . S
C139 H143 0.930 . S
C140 C139 1.369 . S
C140 C149 1.429 . S
C141 C139 1.419 . S
C141 C142 1.363 . S
C141 H144 0.929 . S
C142 C141 1.363 . S
C142 C148 1.428 . S
H143 C139 0.930 . S
H144 C141 0.929 . S
S145 N146 1.613 . S
S145 N147 1.610 . S
N146 S145 1.613 . S
N146 C149 1.350 . S
N147 S145 1.610 . S
N147 C148 1.351 . S
C148 C142 1.428 . S
C148 N147 1.351 . S
C148 C149 1.434 . S
C149 C140 1.429 . S
C149 N146 1.350 . S
C149 C148 1.434 . S
C150 C151 1.369 . S
C150 C152 1.419 . S
C150 H154 0.930 . S
C151 C150 1.369 . S
C151 C160 1.429 1_545 S
C152 C150 1.419 . S
C152 C153 1.363 . S
C152 H155 0.929 . S
C153 C152 1.363 . S
C153 C159 1.428 1_545 S
H154 C150 0.930 . S
H155 C152 0.929 . S
S156 N157 1.613 . S
S156 N158 1.610 . S
N157 S156 1.613 . S
N157 C160 1.350 . S
N158 S156 1.610 . S
N158 C159 1.351 . S
C159 C153 1.428 1_565 S
C159 N158 1.351 . S
C159 C160 1.434 . S
C160 C151 1.429 1_565 S
C160 N157 1.350 . S
C160 C159 1.434 . S
C161 C162 1.369 1_556 S
C161 C163 1.419 . S
C161 H165 0.930 . S
C162 C161 1.369 1_554 S
C162 C171 1.429 . S
C163 C161 1.419 . S
C163 C164 1.363 . S
C163 H166 0.929 . S
C164 C163 1.363 . S
C164 C170 1.428 . S
H165 C161 0.930 . S
H166 C163 0.929 . S
S167 N168 1.613 . S
S167 N169 1.610 1_554 S
N168 S167 1.613 . S
N168 C171 1.350 . S
N169 S167 1.610 1_556 S
N169 C170 1.351 . S
C170 C164 1.428 . S
C170 N169 1.351 . S
C170 C171 1.434 1_556 S
C171 C162 1.429 . S
C171 N168 1.350 . S
C171 C170 1.434 1_554 S
C172 C173 1.369 . S
C172 C174 1.419 . S
C172 H176 0.930 . S
C173 C172 1.369 . S
C173 C182 1.429 . S
C174 C172 1.419 . S
C174 C175 1.363 . S
C174 H177 0.929 . S
C175 C174 1.363 . S
C175 C181 1.428 . S
H176 C172 0.930 . S
H177 C174 0.929 . S
S178 N179 1.613 . S
S178 N180 1.610 . S
N179 S178 1.613 . S
N179 C182 1.350 1_655 S
N180 S178 1.610 . S
N180 C181 1.351 1_655 S
C181 C175 1.428 . S
C181 N180 1.351 1_455 S
C181 C182 1.434 . S
C182 C173 1.429 . S
C182 N179 1.350 1_455 S
C182 C181 1.434 . S
C183 C184 1.369 . S
C183 C185 1.419 . S
C183 H187 0.930 1_545 S
C184 C183 1.369 . S
C184 C193 1.429 . S
C185 C183 1.419 . S
C185 C186 1.363 . S
C185 H188 0.929 1_545 S
C186 C185 1.363 . S
C186 C192 1.428 . S
H187 C183 0.930 1_565 S
H188 C185 0.929 1_565 S
S189 N190 1.613 . S
S189 N191 1.610 . S
N190 S189 1.613 . S
N190 C193 1.350 . S
N191 S189 1.610 . S
N191 C192 1.351 . S
C192 C186 1.428 . S
C192 N191 1.351 . S
C192 C193 1.434 . S
C193 C184 1.429 . S
C193 N190 1.350 . S
C193 C192 1.434 . S
C194 C195 1.369 1_554 S
C194 C196 1.419 1_554 S
C194 H198 0.930 . S
C195 C194 1.369 1_556 S
C195 C204 1.428 . S
C196 C194 1.419 1_556 S
C196 C197 1.363 . S
C196 H199 0.929 . S
C197 C196 1.363 . S
C197 C203 1.428 . S
H198 C194 0.930 . S
H199 C196 0.929 . S
S200 N201 1.613 . S
S200 N202 1.610 . S
N201 S200 1.613 . S
N201 C204 1.350 . S
N202 S200 1.610 . S
N202 C203 1.351 . S
C203 C197 1.428 . S
C203 N202 1.351 . S
C203 C204 1.434 . S
C204 C195 1.428 . S
C204 N201 1.350 . S
C204 C203 1.434 . S
C205 C206 1.369 . S
C205 C207 1.419 . S
C205 H209 0.930 . S
C206 C205 1.369 . S
C206 C215 1.429 . S
C207 C205 1.419 . S
C207 C208 1.363 . S
C207 H210 0.929 . S
C208 C207 1.363 . S
C208 C214 1.428 . S
H209 C205 0.930 . S
H210 C207 0.929 . S
S211 N212 1.613 . S
S211 N213 1.610 . S
N212 S211 1.613 . S
N212 C215 1.350 1_655 S
N213 S211 1.610 . S
N213 C214 1.351 1_655 S
C214 C208 1.428 . S
C214 N213 1.351 1_455 S
C214 C215 1.434 . S
C215 C206 1.429 . S
C215 N212 1.350 1_455 S
C215 C214 1.434 . S
C87 C43 1.480 . S
C85 C3 1.475 . S
C96 C21 1.489 . S
C98 C69 1.509 . S
C107 C37 1.465 . S
C109 C71 1.488 . S
C118 C8 1.482 . S
C120 C55 1.480 . S
C131 C57 1.485 . S
C129 C23 1.461 . S
C140 C35 1.459 . S
C142 C83 1.486 . S
C153 C56 1.482 . S
C151 C31 1.476 . S
C162 C7 1.465 . S
C164 C82 1.485 . S
C175 C42 1.481 . S
C173 C17 1.476 . S
C186 C68 1.455 . S
C184 C36 1.456 . S
C197 C70 1.488 . S
C195 C9 1.468 1_556 S
C206 C22 1.483 . S
C208 C54 1.481 . S
