# Generated by pormake.
# Topology alb, (6,12)-cn, num edge types: 1
# Building blocks:
#     Node 0, Type 0, BuildingBlock: IZENUY_clean_sbu_0, # of connection points: 6
#     Node 1, Type 0, BuildingBlock: IZENUY_clean_sbu_0, # of connection points: 6
#     Node 2, Type 1, BuildingBlock: QEWDON_clean_sbu_0, # of connection points: 12
#     Edge 3, Type (0, 1), BuildingBlock: OJICUG_clean_linker_0, # of connection points: 2
#     Edge 4, Type (0, 1), BuildingBlock: OJICUG_clean_linker_0, # of connection points: 2
#     Edge 5, Type (0, 1), BuildingBlock: OJICUG_clean_linker_0, # of connection points: 2
#     Edge 6, Type (0, 1), BuildingBlock: OJICUG_clean_linker_0, # of connection points: 2
#     Edge 7, Type (0, 1), BuildingBlock: OJICUG_clean_linker_0, # of connection points: 2
#     Edge 8, Type (0, 1), BuildingBlock: OJICUG_clean_linker_0, # of connection points: 2
#     Edge 9, Type (0, 1), BuildingBlock: OJICUG_clean_linker_0, # of connection points: 2
#     Edge 10, Type (0, 1), BuildingBlock: OJICUG_clean_linker_0, # of connection points: 2
#     Edge 11, Type (0, 1), BuildingBlock: OJICUG_clean_linker_0, # of connection points: 2
#     Edge 12, Type (0, 1), BuildingBlock: OJICUG_clean_linker_0, # of connection points: 2
#     Edge 13, Type (0, 1), BuildingBlock: OJICUG_clean_linker_0, # of connection points: 2
#     Edge 14, Type (0, 1), BuildingBlock: OJICUG_clean_linker_0, # of connection points: 2
# Relax obj value: 0.111
# Max RMSD: 0.218
# Mean RMSD: 0.114
data_MOF--net-alb--node1-IZENUY_clean_sbu_0--node2-QEWDON_clean_sbu_0--edge1-OJICUG_clean_linker_0
_symmetry_space_group_name_H-M    P1
_symmetry_Int_Tables_number       1
_symmetry_cell_setting            triclinic
loop_
_symmetry_equiv_pos_as_xyz
'x, y, z'
_cell_length_a     18.841882
_cell_length_b     18.695994
_cell_length_c     15.379881
_cell_angle_alpha  89.982576
_cell_angle_beta   89.860945
_cell_angle_gamma 119.72267
loop_
_atom_site_label
_atom_site_type_symbol
_atom_site_fract_x
_atom_site_fract_y
_atom_site_fract_z
_atom_type_partial_charge
Fe0 Fe 0.34775 0.76308 0.12594 0.0
Fe1 Fe 0.33845 0.59427 0.13101 0.0
O2 O 0.28965 0.65457 0.13998 0.0
Fe3 Fe 0.18333 0.60549 0.16364 0.0
O4 O 0.16174 0.64631 0.06613 0.0
O5 O 0.26534 0.77299 0.07402 0.0
O6 O 0.38168 0.75412 0.01762 0.0
C7 C 0.42216 0.71816 0.00301 0.0
C8 C 0.24973 0.75117 0.26505 0.0
O9 O 0.41608 0.66208 0.05334 0.0
C10 C 0.22886 0.51708 0.27011 0.0
O11 O 0.44002 0.77226 0.17592 0.0
O12 O 0.40543 0.64725 0.22141 0.0
O13 O 0.18952 0.68946 0.23079 0.0
O14 O 0.32042 0.78182 0.23293 0.0
C15 C 0.19817 0.49944 0.04109 0.0
O16 O 0.27122 0.51413 0.20796 0.0
O17 O 0.1958 0.56123 0.26417 0.0
C18 C 0.45223 0.72428 0.22386 0.0
O19 O 0.27519 0.53849 0.03964 0.0
O20 O 0.15879 0.51263 0.10011 0.0
C21 C 0.19688 0.72089 0.0426 0.0
Fe22 Fe 0.70349 0.44065 0.05517 0.0
Fe23 Fe 0.71283 0.28115 0.04997 0.0
O24 O 0.76162 0.39023 0.04107 0.0
Fe25 Fe 0.86795 0.44744 0.01741 0.0
O26 O 0.88953 0.50977 0.11493 0.0
O27 O 0.78586 0.53284 0.10721 0.0
O28 O 0.66949 0.3976 0.16344 0.0
C29 C 0.62901 0.32117 0.17797 0.0
C30 C 0.80158 0.52693 0.91613 0.0
O31 O 0.63515 0.27125 0.1276 0.0
C32 C 0.82245 0.31361 0.91088 0.0
O33 O 0.61127 0.35768 0.00507 0.0
O34 O 0.64588 0.26727 0.95956 0.0
O35 O 0.86177 0.52527 0.95029 0.0
O36 O 0.73089 0.48691 0.94823 0.0
C37 C 0.8531 0.32649 0.13996 0.0
O38 O 0.7801 0.26828 0.97304 0.0
O39 O 0.8555 0.3908 0.91686 0.0
C40 C 0.59908 0.29753 0.95711 0.0
O41 O 0.77607 0.28853 0.14136 0.0
O42 O 0.89248 0.37906 0.08094 0.0
C43 C 0.85436 0.54917 0.13855 0.0
Zn44 Zn 0.15799 0.17279 0.3863 0.0
Zn45 Zn 0.16026 1.00316 0.39133 0.0
O46 O 0.08585 0.04977 0.39435 0.0
H47 H 0.02773 0.02047 0.38357 0.0
C48 C 0.16365 0.2952 0.56194 0.0
O49 O 0.1126 0.28811 0.62408 0.0
Zn50 Zn 0.89084 0.86889 0.78936 0.0
Zn51 Zn 0.89314 0.04094 0.79497 0.0
O52 O 0.96509 0.9899 0.7858 0.0
H53 H 0.02354 1.01874 0.79435 0.0
Zn54 Zn 0.17363 0.16101 0.66075 0.0
O55 O 0.11402 0.04069 0.6282 0.0
Zn56 Zn 0.151 0.97414 0.70023 0.0
H57 H 0.08989 0.02724 0.5712 0.0
Zn58 Zn 0.87768 1.01278 0.52031 0.0
O59 O 0.93744 0.95206 0.55254 0.0
H60 H 0.96173 0.96277 0.60945 0.0
Zn61 Zn 0.90032 0.84849 0.48071 0.0
C62 C 0.8877 0.15696 0.61913 0.0
O63 O 0.93874 0.2009 0.55697 0.0
O64 O 0.27784 0.20915 0.35467 0.0
O65 O 0.27327 0.08792 0.34601 0.0
O66 O 0.77336 0.95747 0.82665 0.0
O67 O 0.77785 0.84073 0.83472 0.0
O68 O 0.26822 0.18101 0.74064 0.0
O69 O 0.25302 0.05627 0.7664 0.0
C70 C 0.02861 0.84809 0.34228 0.0
O71 O 0.78305 0.93823 0.44045 0.0
O72 O 0.79829 0.82872 0.41458 0.0
O73 O 0.94898 0.15561 0.85265 0.0
C74 C 0.3123 0.16652 0.33916 0.0
O75 O 0.10235 0.23199 0.32889 0.0
C76 C 0.02263 0.84565 0.83868 0.0
O77 O 0.19596 0.24934 0.56362 0.0
C78 C 0.73886 0.88034 0.84187 0.0
O79 O 0.85541 0.0788 0.61748 0.0
C80 C 0.18549 0.91984 0.54023 0.0
O81 O 0.10319 0.89687 0.32246 0.0
O82 O 0.99715 0.87069 0.40238 0.0
C83 C 0.29195 0.13464 0.77573 0.0
O84 O 0.94805 0.81989 0.85847 0.0
O85 O 0.05409 0.89966 0.77852 0.0
C86 C 0.86568 0.75992 0.64088 0.0
O87 O 0.17994 0.90388 0.62109 0.0
O88 O 0.17206 0.97617 0.51419 0.0
C89 C 0.75933 0.86818 0.40532 0.0
O90 O 0.87137 0.74941 0.56008 0.0
O91 O 0.87893 0.82967 0.66668 0.0
C92 C 0.02441 0.20367 0.83753 0.0
O93 O 0.06331 0.17945 0.78484 0.0
C94 C 0.02689 0.20459 0.34394 0.0
O95 O 0.98796 0.14135 0.39646 0.0
C96 C 0.2873 0.87743 0.35252 0.0
C97 C 0.23612 0.79245 0.34001 0.0
H98 H 0.31081 0.98385 0.42674 0.0
C99 C 0.17109 0.74819 0.39845 0.0
H100 H 0.33787 0.91318 0.30871 0.0
C101 C 0.15649 0.78875 0.4669 0.0
C102 C 0.20589 0.87417 0.47667 0.0
H103 H 0.13098 0.68253 0.39049 0.0
H104 H 0.10486 0.75414 0.50983 0.0
C105 C 0.27177 0.91794 0.41971 0.0
C106 C 0.52045 0.33349 0.26037 0.0
C107 C 0.55751 0.28694 0.23717 0.0
H108 H 0.41346 0.33187 0.31017 0.0
C109 C 0.51701 0.20235 0.25722 0.0
H110 H 0.54976 0.39863 0.24545 0.0
C111 C 0.43865 0.16385 0.29329 0.0
C112 C 0.3989 0.20908 0.31041 0.0
H113 H 0.54412 0.16479 0.24066 0.0
H114 H 0.40813 0.098 0.3045 0.0
C115 C 0.44183 0.29489 0.29657 0.0
C116 C 0.15273 0.44951 0.40865 0.0
C117 C 0.21372 0.46324 0.34727 0.0
H118 H 0.08844 0.38512 0.52393 0.0
C119 C 0.2599 0.42357 0.35924 0.0
H120 H 0.11596 0.47893 0.40144 0.0
C121 C 0.24473 0.37058 0.42974 0.0
C122 C 0.1823 0.35494 0.48974 0.0
H123 H 0.30789 0.43317 0.31382 0.0
H124 H 0.28147 0.34113 0.43661 0.0
C125 C 0.13699 0.39571 0.4789 0.0
C126 C 0.85448 0.23006 0.25264 0.0
C127 C 0.89728 0.3002 0.19974 0.0
H128 H 0.86201 0.14537 0.34067 0.0
C129 C 0.98303 0.34228 0.20084 0.0
H130 H 0.7883 0.19657 0.25421 0.0
C131 C 0.02511 0.31145 0.24796 0.0
C132 C 0.98243 0.23987 0.29843 0.0
H133 H 0.01777 0.39832 0.16405 0.0
H134 H 0.09105 0.343 0.24355 0.0
C135 C 0.89671 0.20055 0.30204 0.0
C136 C 0.57255 0.84408 0.2899 0.0
C137 C 0.52912 0.75916 0.27315 0.0
H138 H 0.67945 0.94497 0.3437 0.0
C139 C 0.56253 0.70992 0.29886 0.0
H140 H 0.54839 0.88361 0.27078 0.0
C141 C 0.63861 0.74543 0.3399 0.0
C142 C 0.68176 0.83047 0.35685 0.0
H143 H 0.53065 0.64435 0.28596 0.0
H144 H 0.663 0.7062 0.35937 0.0
C145 C 0.64782 0.87927 0.33152 0.0
C146 C 0.98336 0.66324 0.20241 0.0
C147 C 0.89774 0.62164 0.19686 0.0
H148 H 0.09112 0.76871 0.24882 0.0
C149 C 0.85465 0.65286 0.24376 0.0
H150 H 0.01859 0.64086 0.16789 0.0
C151 C 0.89651 0.72468 0.29396 0.0
C152 C 0.98235 0.76815 0.29604 0.0
H153 H 0.78855 0.62203 0.24124 0.0
H154 H 0.86181 0.74753 0.32868 0.0
C155 C 0.02504 0.73641 0.2496 0.0
C156 C 0.06789 0.70596 0.97855 0.0
C157 C 0.15351 0.75004 0.98429 0.0
H158 H 0.96013 0.70363 0.93192 0.0
C159 C 0.19658 0.82442 0.93753 0.0
H160 H 0.03267 0.6483 0.01296 0.0
C161 C 0.15474 0.85441 0.88727 0.0
C162 C 0.0689 0.81198 0.88501 0.0
H163 H 0.26268 0.85973 0.94019 0.0
H164 H 0.18942 0.91202 0.85266 0.0
C165 C 0.02621 0.73747 0.93131 0.0
C166 C 0.48877 0.17299 0.88214 0.0
C167 C 0.5222 0.25562 0.90782 0.0
H168 H 0.38826 0.06889 0.82168 0.0
C169 C 0.47877 0.29714 0.89106 0.0
H170 H 0.52064 0.13926 0.89504 0.0
C171 C 0.40349 0.25713 0.84948 0.0
C172 C 0.36952 0.17441 0.82418 0.0
H173 H 0.50295 0.36082 0.91016 0.0
H174 H 0.37188 0.29125 0.83729 0.0
C175 C 0.41267 0.13249 0.84113 0.0
C176 C 0.1968 0.40159 0.92853 0.0
C177 C 0.15399 0.42894 0.98141 0.0
H178 H 0.18929 0.30934 0.84062 0.0
C179 C 0.06824 0.38522 0.98043 0.0
H180 H 0.26298 0.4343 0.92687 0.0
C181 C 0.02618 0.31227 0.93346 0.0
C182 C 0.06887 0.28338 0.88299 0.0
H183 H 0.03351 0.40654 0.0172 0.0
H184 H 0.96025 0.27786 0.93797 0.0
C185 C 0.15458 0.32981 0.87926 0.0
C186 C 0.7913 0.18913 0.82167 0.0
C187 C 0.83758 0.27493 0.83371 0.0
H188 H 0.76965 0.08517 0.74425 0.0
C189 C 0.89867 0.32214 0.77242 0.0
H190 H 0.74323 0.15078 0.86702 0.0
C191 C 0.91442 0.28409 0.70219 0.0
C192 C 0.86903 0.19805 0.69129 0.0
H193 H 0.93552 0.38829 0.77969 0.0
H194 H 0.96306 0.32202 0.65723 0.0
C195 C 0.80649 0.15132 0.75119 0.0
C196 C 0.53415 0.71141 0.92363 0.0
C197 C 0.49364 0.75549 0.9438 0.0
H198 H 0.64304 0.71597 0.87629 0.0
C199 C 0.5307 0.83911 0.92073 0.0
H200 H 0.50704 0.64673 0.9401 0.0
C201 C 0.60932 0.87915 0.88456 0.0
C202 C 0.65226 0.83628 0.8706 0.0
H203 H 0.50138 0.87493 0.93574 0.0
H204 H 0.63768 0.94451 0.87106 0.0
C205 C 0.61251 0.7513 0.88758 0.0
C206 C 0.76417 0.61597 0.82893 0.0
C207 C 0.81521 0.58195 0.84125 0.0
H208 H 0.74073 0.69906 0.75486 0.0
C209 C 0.88012 0.60257 0.78267 0.0
H210 H 0.71371 0.60126 0.87286 0.0
C211 C 0.89469 0.65777 0.71424 0.0
C212 C 0.84542 0.69399 0.70464 0.0
H213 H 0.92013 0.57686 0.79048 0.0
H214 H 0.9462 0.67464 0.67115 0.0
C215 C 0.7797 0.67207 0.76177 0.0
loop_
_geom_bond_atom_site_label_1
_geom_bond_atom_site_label_2
_geom_bond_distance
_geom_bond_site_symmetry_2
_ccdc_geom_bond_type
Fe0 O2 1.918 . S
Fe0 O5 1.997 . S
Fe0 O6 2.002 . S
Fe0 O11 1.976 . S
Fe0 O14 1.996 . S
Fe1 O2 1.918 . S
Fe1 O9 1.997 . S
Fe1 O12 1.996 . S
Fe1 O16 1.976 . S
Fe1 O19 2.002 . S
O2 Fe0 1.918 . S
O2 Fe1 1.918 . S
O2 Fe3 1.918 . S
Fe3 O2 1.918 . S
Fe3 O4 2.002 . S
Fe3 O13 1.976 . S
Fe3 O17 1.996 . S
Fe3 O20 1.997 . S
O4 Fe3 2.002 . S
O4 C21 1.295 . S
O5 Fe0 1.997 . S
O5 C21 1.235 . S
O6 Fe0 2.002 . S
O6 C7 1.295 . S
C7 O6 1.295 . S
C7 O9 1.235 . S
C8 O13 1.287 . S
C8 O14 1.255 . S
O9 Fe1 1.997 . S
O9 C7 1.235 . S
C10 O16 1.287 . S
C10 O17 1.255 . S
O11 Fe0 1.976 . S
O11 C18 1.287 . S
O12 Fe1 1.996 . S
O12 C18 1.255 . S
O13 Fe3 1.976 . S
O13 C8 1.287 . S
O14 Fe0 1.996 . S
O14 C8 1.255 . S
C15 O19 1.295 . S
C15 O20 1.235 . S
O16 Fe1 1.976 . S
O16 C10 1.287 . S
O17 Fe3 1.996 . S
O17 C10 1.255 . S
C18 O11 1.287 . S
C18 O12 1.255 . S
O19 Fe1 2.002 . S
O19 C15 1.295 . S
O20 Fe3 1.997 . S
O20 C15 1.235 . S
C21 O4 1.295 . S
C21 O5 1.235 . S
Fe22 O24 1.918 . S
Fe22 O27 1.997 . S
Fe22 O28 2.002 . S
Fe22 O33 1.976 1_554 S
Fe22 O36 1.996 1_554 S
Fe23 O24 1.918 . S
Fe23 O31 1.997 . S
Fe23 O34 1.996 1_554 S
Fe23 O38 1.976 1_554 S
Fe23 O41 2.002 . S
O24 Fe22 1.918 . S
O24 Fe23 1.918 . S
O24 Fe25 1.918 . S
Fe25 O24 1.918 . S
Fe25 O26 2.002 . S
Fe25 O35 1.976 1_554 S
Fe25 O39 1.996 1_554 S
Fe25 O42 1.997 . S
O26 Fe25 2.002 . S
O26 C43 1.295 . S
O27 Fe22 1.997 . S
O27 C43 1.235 . S
O28 Fe22 2.002 . S
O28 C29 1.295 . S
C29 O28 1.295 . S
C29 O31 1.235 . S
C30 O35 1.287 . S
C30 O36 1.255 . S
O31 Fe23 1.997 . S
O31 C29 1.235 . S
C32 O38 1.287 . S
C32 O39 1.255 . S
O33 Fe22 1.976 1_556 S
O33 C40 1.287 . S
O34 Fe23 1.996 1_556 S
O34 C40 1.255 . S
O35 Fe25 1.976 1_556 S
O35 C30 1.287 . S
O36 Fe22 1.996 1_556 S
O36 C30 1.255 . S
C37 O41 1.295 . S
C37 O42 1.235 . S
O38 Fe23 1.976 1_556 S
O38 C32 1.287 . S
O39 Fe25 1.996 1_556 S
O39 C32 1.255 . S
C40 O33 1.287 . S
C40 O34 1.255 . S
O41 Fe23 2.002 . S
O41 C37 1.295 . S
O42 Fe25 1.997 . S
O42 C37 1.235 . S
C43 O26 1.295 . S
C43 O27 1.235 . S
Zn44 O46 1.933 . S
Zn44 O64 1.985 . S
Zn44 O75 1.955 . S
Zn45 O46 1.911 1_565 S
Zn45 O65 1.970 1_565 S
Zn45 O81 1.945 . S
Zn45 O88 1.981 . S
O46 Zn44 1.933 . S
O46 Zn45 1.911 1_545 S
O46 H47 0.841 1_445 S
H47 O46 0.841 1_665 S
C48 O49 1.246 . S
C48 O77 1.276 . S
O49 C48 1.246 . S
Zn50 O52 1.911 . S
Zn50 O67 1.970 . S
Zn50 O84 1.945 1_655 S
Zn50 O91 1.981 . S
Zn51 O52 1.933 1_545 S
Zn51 O66 1.985 1_545 S
Zn51 O73 1.955 1_655 S
O52 Zn50 1.911 . S
O52 Zn51 1.933 1_565 S
O52 H53 0.841 1_665 S
H53 O52 0.841 1_445 S
Zn54 O55 1.933 . S
Zn54 O68 1.985 . S
Zn54 O77 1.955 . S
O55 Zn54 1.933 . S
O55 Zn56 1.911 . S
O55 H57 0.841 . S
Zn56 O55 1.911 . S
Zn56 O69 1.970 . S
Zn56 O85 1.981 1_545 S
Zn56 O87 1.945 1_545 S
H57 O55 0.841 . S
Zn58 O59 1.933 . S
Zn58 O71 1.985 . S
Zn58 O79 1.955 1_565 S
O59 Zn58 1.933 . S
O59 H60 0.841 . S
O59 Zn61 1.911 . S
H60 O59 0.841 . S
Zn61 O59 1.911 . S
Zn61 O72 1.970 . S
Zn61 O82 1.981 . S
Zn61 O90 1.945 . S
C62 O63 1.246 . S
C62 O79 1.276 . S
O63 C62 1.246 . S
O64 Zn44 1.985 . S
O64 C74 1.245 . S
O65 Zn45 1.970 1_545 S
O65 C74 1.263 . S
O66 Zn51 1.985 1_565 S
O66 C78 1.245 . S
O67 Zn50 1.970 . S
O67 C78 1.263 . S
O68 Zn54 1.985 . S
O68 C83 1.245 . S
O69 Zn56 1.970 . S
O69 C83 1.263 . S
C70 O81 1.262 1_655 S
C70 O82 1.245 . S
O71 Zn58 1.985 . S
O71 C89 1.245 . S
O72 Zn61 1.970 . S
O72 C89 1.263 . S
O73 Zn51 1.955 1_455 S
O73 C92 1.276 . S
C74 O64 1.245 . S
C74 O65 1.263 . S
O75 Zn44 1.955 . S
O75 C94 1.276 1_455 S
C76 O84 1.262 . S
C76 O85 1.245 . S
O77 C48 1.276 . S
O77 Zn54 1.955 . S
C78 O66 1.245 . S
C78 O67 1.263 . S
O79 Zn58 1.955 1_545 S
O79 C62 1.276 . S
C80 O87 1.262 . S
C80 O88 1.245 . S
O81 Zn45 1.945 . S
O81 C70 1.262 1_455 S
O82 Zn61 1.981 . S
O82 C70 1.245 . S
C83 O68 1.245 . S
C83 O69 1.263 . S
O84 Zn50 1.945 1_455 S
O84 C76 1.262 . S
O85 Zn56 1.981 1_565 S
O85 C76 1.245 . S
C86 O90 1.262 . S
C86 O91 1.245 . S
O87 Zn56 1.945 1_565 S
O87 C80 1.262 . S
O88 Zn45 1.981 . S
O88 C80 1.245 . S
C89 O71 1.245 . S
C89 O72 1.263 . S
O90 Zn61 1.945 . S
O90 C86 1.262 . S
O91 Zn50 1.981 . S
O91 C86 1.245 . S
C92 O73 1.276 . S
C92 O93 1.246 . S
O93 C92 1.246 . S
C94 O75 1.276 1_655 S
C94 O95 1.246 . S
O95 C94 1.246 . S
C96 C97 1.387 . S
C96 H100 0.950 . S
C96 C105 1.390 . S
C97 C96 1.387 . S
C97 C99 1.387 . S
H98 C105 0.950 . S
C99 C97 1.387 . S
C99 C101 1.390 . S
C99 H103 0.950 . S
H100 C96 0.950 . S
C101 C99 1.390 . S
C101 C102 1.387 . S
C101 H104 0.950 . S
C102 C101 1.387 . S
C102 C105 1.387 . S
H103 C99 0.950 . S
H104 C101 0.950 . S
C105 C96 1.390 . S
C105 H98 0.950 . S
C105 C102 1.387 . S
C106 C107 1.387 . S
C106 H110 0.950 . S
C106 C115 1.390 . S
C107 C106 1.387 . S
C107 C109 1.387 . S
H108 C115 0.950 . S
C109 C107 1.387 . S
C109 C111 1.390 . S
C109 H113 0.950 . S
H110 C106 0.950 . S
C111 C109 1.390 . S
C111 C112 1.387 . S
C111 H114 0.950 . S
C112 C111 1.387 . S
C112 C115 1.387 . S
H113 C109 0.950 . S
H114 C111 0.950 . S
C115 C106 1.390 . S
C115 H108 0.950 . S
C115 C112 1.387 . S
C116 C117 1.387 . S
C116 H120 0.950 . S
C116 C125 1.390 . S
C117 C116 1.387 . S
C117 C119 1.387 . S
H118 C125 0.950 . S
C119 C117 1.387 . S
C119 C121 1.390 . S
C119 H123 0.950 . S
H120 C116 0.950 . S
C121 C119 1.390 . S
C121 C122 1.387 . S
C121 H124 0.950 . S
C122 C121 1.387 . S
C122 C125 1.387 . S
H123 C119 0.950 . S
H124 C121 0.950 . S
C125 C116 1.390 . S
C125 H118 0.950 . S
C125 C122 1.387 . S
C126 C127 1.387 . S
C126 H130 0.950 . S
C126 C135 1.390 . S
C127 C126 1.387 . S
C127 C129 1.387 . S
H128 C135 0.950 . S
C129 C127 1.387 . S
C129 C131 1.390 . S
C129 H133 0.950 . S
H130 C126 0.950 . S
C131 C129 1.390 . S
C131 C132 1.387 . S
C131 H134 0.950 . S
C132 C131 1.387 . S
C132 C135 1.387 . S
H133 C129 0.950 . S
H134 C131 0.950 . S
C135 C126 1.390 . S
C135 H128 0.950 . S
C135 C132 1.387 . S
C136 C137 1.387 . S
C136 H140 0.950 . S
C136 C145 1.390 . S
C137 C136 1.387 . S
C137 C139 1.387 . S
H138 C145 0.950 . S
C139 C137 1.387 . S
C139 C141 1.390 . S
C139 H143 0.950 . S
H140 C136 0.950 . S
C141 C139 1.390 . S
C141 C142 1.387 . S
C141 H144 0.950 . S
C142 C141 1.387 . S
C142 C145 1.387 . S
H143 C139 0.950 . S
H144 C141 0.950 . S
C145 C136 1.390 . S
C145 H138 0.950 . S
C145 C142 1.387 . S
C146 C147 1.387 . S
C146 H150 0.950 . S
C146 C155 1.390 . S
C147 C146 1.387 . S
C147 C149 1.387 . S
H148 C155 0.950 . S
C149 C147 1.387 . S
C149 C151 1.390 . S
C149 H153 0.950 . S
H150 C146 0.950 . S
C151 C149 1.390 . S
C151 C152 1.387 . S
C151 H154 0.950 . S
C152 C151 1.387 . S
C152 C155 1.387 . S
H153 C149 0.950 . S
H154 C151 0.950 . S
C155 C146 1.390 . S
C155 H148 0.950 . S
C155 C152 1.387 . S
C156 C157 1.387 . S
C156 H160 0.950 . S
C156 C165 1.390 . S
C157 C156 1.387 . S
C157 C159 1.387 . S
H158 C165 0.950 . S
C159 C157 1.387 . S
C159 C161 1.390 . S
C159 H163 0.950 1_556 S
H160 C156 0.950 . S
C161 C159 1.390 . S
C161 C162 1.387 . S
C161 H164 0.950 . S
C162 C161 1.387 . S
C162 C165 1.387 . S
H163 C159 0.950 1_554 S
H164 C161 0.950 . S
C165 C156 1.390 . S
C165 H158 0.950 . S
C165 C162 1.387 . S
C166 C167 1.387 . S
C166 H170 0.950 . S
C166 C175 1.390 . S
C167 C166 1.387 . S
C167 C169 1.387 . S
H168 C175 0.950 . S
C169 C167 1.387 . S
C169 C171 1.390 . S
C169 H173 0.950 . S
H170 C166 0.950 . S
C171 C169 1.390 . S
C171 C172 1.387 . S
C171 H174 0.950 . S
C172 C171 1.387 . S
C172 C175 1.387 . S
H173 C169 0.950 . S
H174 C171 0.950 . S
C175 C166 1.390 . S
C175 H168 0.950 . S
C175 C172 1.387 . S
C176 C177 1.387 . S
C176 H180 0.950 . S
C176 C185 1.390 . S
C177 C176 1.387 . S
C177 C179 1.387 . S
H178 C185 0.950 . S
C179 C177 1.387 . S
C179 C181 1.390 . S
C179 H183 0.950 . S
H180 C176 0.950 . S
C181 C179 1.390 . S
C181 C182 1.387 . S
C181 H184 0.950 . S
C182 C181 1.387 . S
C182 C185 1.387 . S
H183 C179 0.950 . S
H184 C181 0.950 . S
C185 C176 1.390 . S
C185 H178 0.950 . S
C185 C182 1.387 . S
C186 C187 1.387 . S
C186 H190 0.950 . S
C186 C195 1.390 . S
C187 C186 1.387 . S
C187 C189 1.387 . S
H188 C195 0.950 . S
C189 C187 1.387 . S
C189 C191 1.390 . S
C189 H193 0.950 . S
H190 C186 0.950 . S
C191 C189 1.390 . S
C191 C192 1.387 . S
C191 H194 0.950 . S
C192 C191 1.387 . S
C192 C195 1.387 . S
H193 C189 0.950 . S
H194 C191 0.950 . S
C195 C186 1.390 . S
C195 H188 0.950 . S
C195 C192 1.387 . S
C196 C197 1.387 . S
C196 H200 0.950 . S
C196 C205 1.390 . S
C197 C196 1.387 . S
C197 C199 1.387 1_556 S
H198 C205 0.950 . S
C199 C197 1.387 1_554 S
C199 C201 1.390 . S
C199 H203 0.950 . S
H200 C196 0.950 . S
C201 C199 1.390 . S
C201 C202 1.387 1_554 S
C201 H204 0.950 . S
C202 C201 1.387 1_556 S
C202 C205 1.387 . S
H203 C199 0.950 . S
H204 C201 0.950 . S
C205 C196 1.390 . S
C205 H198 0.950 . S
C205 C202 1.387 . S
C206 C207 1.387 . S
C206 H210 0.950 . S
C206 C215 1.390 . S
C207 C206 1.387 . S
C207 C209 1.387 . S
H208 C215 0.950 . S
C209 C207 1.387 . S
C209 C211 1.390 . S
C209 H213 0.950 . S
H210 C206 0.950 . S
C211 C209 1.390 . S
C211 C212 1.387 . S
C211 H214 0.950 . S
C212 C211 1.387 . S
C212 C215 1.387 . S
H213 C209 0.950 . S
H214 C211 0.950 . S
C215 C206 1.390 . S
C215 H208 0.950 . S
C215 C212 1.387 . S
C97 C8 1.483 . S
C102 C80 1.481 . S
C112 C74 1.828 . S
C107 C29 1.792 . S
C122 C48 1.493 . S
C117 C10 1.506 . S
C132 C94 1.837 . S
C127 C37 1.923 . S
C142 C89 0.529 . S
C137 C18 0.523 . S
C147 C43 1.845 . S
C152 C70 1.788 . S
C157 C21 1.845 1_556 S
C162 C76 1.788 . S
C167 C40 0.527 . S
C172 C83 0.534 . S
C177 C15 1.924 1_556 S
C182 C92 1.835 . S
C187 C32 1.506 . S
C192 C62 1.494 . S
C202 C78 1.827 . S
C197 C7 1.791 1_556 S
C207 C30 1.483 . S
C212 C86 1.480 . S
