# Generated by pormake.
# Topology scu, (8,4)-cn, num edge types: 1
# Building blocks:
#     Node 0, Type 0, BuildingBlock: TAGTUT_clean_sbu_3, # of connection points: 8
#     Node 1, Type 1, BuildingBlock: NAWXER_clean_sbu_0, # of connection points: 4
#     Node 2, Type 1, BuildingBlock: NAWXER_clean_sbu_0, # of connection points: 4
#     Edge 3, Type (0, 1), BuildingBlock: AJUNOK_clean_linker_0, # of connection points: 2
#     Edge 4, Type (0, 1), BuildingBlock: AJUNOK_clean_linker_0, # of connection points: 2
#     Edge 5, Type (0, 1), BuildingBlock: AJUNOK_clean_linker_0, # of connection points: 2
#     Edge 6, Type (0, 1), BuildingBlock: AJUNOK_clean_linker_0, # of connection points: 2
#     Edge 7, Type (0, 1), BuildingBlock: AJUNOK_clean_linker_0, # of connection points: 2
#     Edge 8, Type (0, 1), BuildingBlock: AJUNOK_clean_linker_0, # of connection points: 2
#     Edge 9, Type (0, 1), BuildingBlock: AJUNOK_clean_linker_0, # of connection points: 2
#     Edge 10, Type (0, 1), BuildingBlock: AJUNOK_clean_linker_0, # of connection points: 2
# Relax obj value: 0.033
# Max RMSD: 0.098
# Mean RMSD: 0.068
data_MOF--net-scu--node1-TAGTUT_clean_sbu_3--node2-NAWXER_clean_sbu_0--edge1-AJUNOK_clean_linker_0
_symmetry_space_group_name_H-M    P1
_symmetry_Int_Tables_number       1
_symmetry_cell_setting            triclinic
loop_
_symmetry_equiv_pos_as_xyz
'x, y, z'
_cell_length_a     20.506424
_cell_length_b     16.715286
_cell_length_c     15.303974
_cell_angle_alpha  90.417981
_cell_angle_beta   89.309003
_cell_angle_gamma 90.635289
loop_
_atom_site_label
_atom_site_type_symbol
_atom_site_fract_x
_atom_site_fract_y
_atom_site_fract_z
_atom_type_partial_charge
C0 C 0.99885 0.85997 0.10972 0.0
C1 C 0.7655 0.96955 0.06968 0.0
C2 C 0.83119 0.0421 0.81338 0.0
Mg3 Mg 0.13636 0.89921 0.02087 0.0
Mg4 Mg 0.17979 0.0819 0.97464 0.0
O5 O 0.11675 0.00244 0.95968 0.0
Mg6 Mg 0.02064 0.01619 0.98535 0.0
O7 O 0.9236 0.01233 0.01091 0.0
Mg8 Mg 0.89643 0.90803 0.95545 0.0
Mg9 Mg 0.86544 0.09535 -0.00441 0.0
C10 C 0.07295 0.16954 0.86281 0.0
O11 O 0.02277 0.12207 0.08874 0.0
O12 O 0.23418 0.89316 0.94065 0.0
O13 O 0.92429 0.17995 0.0658 0.0
O14 O 0.18973 0.96565 0.13445 0.0
O15 O 0.25954 0.0214 0.91136 0.0
O16 O 0.2012 0.09605 0.10988 0.0
O17 O 0.9985 0.91428 0.88855 0.0
O18 O 0.08189 0.83297 0.91002 0.0
C19 C 0.02887 0.8499 0.87119 0.0
C20 C 0.27137 0.94649 0.90518 0.0
O21 O 0.02575 0.1192 0.87945 0.0
O22 O 0.79882 0.91304 0.03446 0.0
O23 O 0.12834 0.16824 0.90083 0.0
O24 O 0.84681 0.97233 0.83972 0.0
O25 O 0.78263 0.04324 0.06334 0.0
O26 O 0.84168 0.10398 0.86047 0.0
O27 O 0.0356 0.91814 0.08693 0.0
O28 O 0.94425 0.84656 0.07252 0.0
C29 C 0.20774 0.03576 0.15928 0.0
C30 C 0.97965 0.1769 0.10388 0.0
C31 C 0.95883 0.61599 0.61532 0.0
C32 C 0.97315 0.4184 0.37567 0.0
O33 O 0.01593 0.599 0.58718 0.0
Zn34 Zn 0.06467 0.52925 0.49257 0.0
O35 O 0.90854 0.58418 0.58039 0.0
Zn36 Zn 0.95684 0.51808 0.49506 0.0
O37 O 1.0039 0.43997 0.57842 0.0
O38 O 0.11074 0.4554 0.56906 0.0
O39 O 0.91998 0.44163 0.41134 0.0
O40 O 0.0274 0.44801 0.40087 0.0
O41 O 0.10291 0.61296 0.41556 0.0
O42 O 0.99535 0.60694 0.41392 0.0
C43 C 0.06079 0.42002 0.60213 0.0
C44 C 0.04873 0.63959 0.3884 0.0
C45 C 0.61984 0.04071 0.56688 0.0
C46 C 0.41009 0.03941 0.41587 0.0
O47 O 0.59765 0.97077 0.54803 0.0
Zn48 Zn 0.51628 0.91534 0.48517 0.0
O49 O 0.58713 0.10188 0.54615 0.0
Zn50 Zn 0.51497 0.04478 0.49136 0.0
O51 O 0.47051 0.98527 0.59925 0.0
O52 O 0.47484 0.8543 0.58013 0.0
O53 O 0.44193 0.10103 0.44105 0.0
O54 O 0.43346 0.96969 0.42824 0.0
O55 O 0.55902 0.86386 0.38436 0.0
O56 O 0.56074 0.99575 0.37866 0.0
C57 C 0.45772 0.91441 0.62626 0.0
C58 C 0.57474 0.92795 0.34441 0.0
C59 C 0.03184 0.29229 0.18293 0.0
C60 C 0.98494 0.23088 0.17982 0.0
C61 C 0.02721 0.35314 0.24654 0.0
C62 C 0.97508 0.35494 0.30792 0.0
H63 H 0.07053 0.29507 0.13418 0.0
H64 H 0.06397 0.40019 0.24638 0.0
S65 S 0.8438 0.20238 0.33121 0.0
N66 N 0.88788 0.17152 0.24674 0.0
N67 N 0.87891 0.28624 0.365 0.0
C68 C 0.92924 0.29228 0.30673 0.0
C69 C 0.9344 0.23009 0.24307 0.0
C70 C 0.70973 0.88175 0.18074 0.0
C71 C 0.70876 0.94957 0.12654 0.0
C72 C 0.66286 0.87098 0.24772 0.0
C73 C 0.6136 0.92763 0.2622 0.0
H74 H 0.74937 0.83961 0.17529 0.0
H75 H 0.66795 0.82116 0.2919 0.0
S76 S 0.58222 0.1063 0.12693 0.0
N77 N 0.64907 0.06748 0.08393 0.0
N78 N 0.56101 0.04711 0.20858 0.0
C79 C 0.60895 0.99164 0.20343 0.0
C80 C 0.65657 0.00271 0.13594 0.0
C81 C 0.07603 0.77042 0.1886 0.0
C82 C 0.01649 0.8115 0.18557 0.0
C83 C 0.08928 0.71805 0.25787 0.0
C84 C 0.0436 0.70663 0.32616 0.0
H85 H 0.11099 0.77585 0.13529 0.0
H86 H 0.13358 0.68338 0.25549 0.0
S87 S 0.88695 0.81414 0.356 0.0
N88 N 0.91606 0.84582 0.26124 0.0
N89 N 0.94128 0.75073 0.39239 0.0
C90 C 0.9866 0.75316 0.32677 0.0
C91 C 0.97286 0.80467 0.25607 0.0
C92 C 0.28957 0.11139 0.24914 0.0
C93 C 0.24766 0.04445 0.23932 0.0
C94 C 0.33941 0.11225 0.31124 0.0
C95 C 0.34913 0.04621 0.36564 0.0
H96 H 0.28696 0.16132 0.20466 0.0
H97 H 0.37317 0.16254 0.31234 0.0
S98 S 0.24358 0.86471 0.38044 0.0
N99 N 0.21249 0.91665 0.29992 0.0
N100 N 0.30608 0.91821 0.41618 0.0
C101 C 0.30367 0.98252 0.36245 0.0
C102 C 0.2529 0.9817 0.2995 0.0
C103 C 1.00827 0.70803 0.82678 0.0
C104 C 0.99889 0.78995 0.8119 0.0
C105 C 0.98696 0.65022 0.76661 0.0
C106 C 0.9555 0.67209 0.68941 0.0
H107 H 0.03452 0.68852 0.88371 0.0
H108 H 0.99944 0.58824 0.77743 0.0
S109 S 0.91783 0.87795 0.6202 0.0
N110 N 0.95352 0.88983 0.71574 0.0
N111 N 0.91449 0.78045 0.60201 0.0
C112 C 0.94262 0.7532 0.67582 0.0
C113 C 0.96405 0.81238 0.73734 0.0
C114 C 0.38081 0.97477 0.84068 0.0
C115 C 0.32676 0.92271 0.84796 0.0
C116 C 0.42627 0.96672 0.77251 0.0
C117 C 0.41959 0.9064 0.70855 0.0
H118 H 0.38601 0.02511 0.88516 0.0
H119 H 0.46495 0.01119 0.76697 0.0
S120 S 0.29085 0.74911 0.70322 0.0
N121 N 0.27239 0.80389 0.7902 0.0
N122 N 0.35825 0.78899 0.66128 0.0
C123 C 0.369 0.84971 0.71898 0.0
C124 C 0.32242 0.85784 0.78896 0.0
C125 C 1.0108 0.27127 0.77843 0.0
C126 C 0.06825 0.22895 0.79204 0.0
C127 C 1.00945 0.33346 0.71736 0.0
C128 C 0.06539 0.35532 0.66743 0.0
H129 H 0.96734 0.25791 0.81681 0.0
H130 H 0.96413 0.36529 0.71009 0.0
S131 S 0.22576 0.25591 0.67166 0.0
N132 N 0.18108 0.20825 0.74552 0.0
N133 N 0.17811 0.3253 0.63172 0.0
C134 C 0.12247 0.3117 0.67872 0.0
C135 C 0.12389 0.24836 0.74054 0.0
C136 C 0.76801 0.97753 0.69317 0.0
C137 C 0.78833 0.04818 0.73585 0.0
C138 C 0.716 0.97716 0.63505 0.0
C139 C 0.68138 0.04734 0.61703 0.0
H140 H 0.78967 0.92064 0.70857 0.0
H141 H 0.70103 0.92015 0.60729 0.0
S142 S 0.72183 0.25111 0.69927 0.0
N143 N 0.77517 0.1927 0.74654 0.0
N144 N 0.67658 0.19157 0.63769 0.0
C145 C 0.70439 0.11975 0.65331 0.0
C146 C 0.75799 0.12027 0.71252 0.0
loop_
_geom_bond_atom_site_label_1
_geom_bond_atom_site_label_2
_geom_bond_distance
_geom_bond_site_symmetry_2
_ccdc_geom_bond_type
C0 O27 1.312 1_655 S
C0 O28 1.208 . S
C1 O22 1.331 . S
C1 O25 1.244 1_565 S
C2 O24 1.264 1_545 S
C2 O26 1.273 . S
Mg3 O5 1.936 1_565 S
Mg3 O12 2.081 . S
Mg3 O14 2.023 1_556 S
Mg3 O18 2.031 . S
Mg3 O27 2.291 1_556 S
Mg4 O5 1.963 . S
Mg4 O15 1.942 . S
Mg4 O16 1.955 1_556 S
Mg4 O23 1.986 . S
O5 Mg3 1.936 1_545 S
O5 Mg4 1.963 . S
O5 Mg6 1.915 1_556 S
Mg6 O5 1.915 1_554 S
Mg6 O7 1.915 1_455 S
Mg6 O11 2.013 . S
Mg6 O17 2.114 1_444 S
Mg6 O21 2.013 1_454 S
Mg6 O27 2.114 1_545 S
O7 Mg6 1.915 1_655 S
O7 Mg8 1.936 1_545 S
O7 Mg9 1.963 . S
Mg8 O7 1.936 1_565 S
Mg8 O17 2.291 1_554 S
Mg8 O22 2.081 . S
Mg8 O24 2.023 1_554 S
Mg8 O28 2.031 . S
Mg9 O7 1.963 . S
Mg9 O13 1.986 . S
Mg9 O25 1.942 . S
Mg9 O26 1.955 1_554 S
C10 O21 1.191 1_455 S
C10 O23 1.307 . S
O11 Mg6 2.013 . S
O11 C30 1.191 1_455 S
O12 Mg3 2.081 . S
O12 C20 1.331 . S
O13 Mg9 1.986 . S
O13 C30 1.307 . S
O14 Mg3 2.023 1_554 S
O14 C29 1.264 1_565 S
O15 Mg4 1.942 . S
O15 C20 1.244 1_545 S
O16 Mg4 1.955 1_554 S
O16 C29 1.273 . S
O17 Mg6 2.114 1_666 S
O17 Mg8 2.291 1_556 S
O17 C19 1.312 1_655 S
O18 Mg3 2.031 . S
O18 C19 1.208 . S
C19 O17 1.312 1_455 S
C19 O18 1.208 . S
C20 O12 1.331 . S
C20 O15 1.244 1_565 S
O21 Mg6 2.013 1_656 S
O21 C10 1.191 1_655 S
O22 C1 1.331 . S
O22 Mg8 2.081 . S
O23 Mg4 1.986 . S
O23 C10 1.307 . S
O24 C2 1.264 1_565 S
O24 Mg8 2.023 1_556 S
O25 C1 1.244 1_545 S
O25 Mg9 1.942 . S
O26 C2 1.273 . S
O26 Mg9 1.955 1_556 S
O27 C0 1.312 1_455 S
O27 Mg3 2.291 1_554 S
O27 Mg6 2.114 1_565 S
O28 C0 1.208 . S
O28 Mg8 2.031 . S
C29 O14 1.264 1_545 S
C29 O16 1.273 . S
C30 O11 1.191 1_655 S
C30 O13 1.307 . S
C31 O33 1.251 . S
C31 O35 1.254 1_455 S
C32 O39 1.247 . S
C32 O40 1.258 1_655 S
O33 C31 1.251 . S
O33 Zn34 2.028 . S
Zn34 O33 2.028 . S
Zn34 O38 2.035 . S
Zn34 O40 2.035 . S
Zn34 O41 2.028 . S
O35 C31 1.254 1_655 S
O35 Zn36 2.035 . S
Zn36 O35 2.035 . S
Zn36 O37 2.028 . S
Zn36 O39 2.028 . S
Zn36 O42 2.035 . S
O37 Zn36 2.028 . S
O37 C43 1.247 . S
O38 Zn34 2.035 . S
O38 C43 1.258 1_455 S
O39 C32 1.247 . S
O39 Zn36 2.028 . S
O40 C32 1.258 1_455 S
O40 Zn34 2.035 . S
O41 Zn34 2.028 . S
O41 C44 1.251 . S
O42 Zn36 2.035 . S
O42 C44 1.254 1_655 S
C43 O37 1.247 . S
C43 O38 1.258 1_655 S
C44 O41 1.251 . S
C44 O42 1.254 1_455 S
C45 O47 1.247 1_545 S
C45 O49 1.258 . S
C46 O53 1.247 . S
C46 O54 1.258 1_545 S
O47 C45 1.247 1_565 S
O47 Zn48 2.028 . S
Zn48 O47 2.028 . S
Zn48 O52 2.035 . S
Zn48 O54 2.035 . S
Zn48 O55 2.028 . S
O49 C45 1.258 . S
O49 Zn50 2.035 . S
Zn50 O49 2.035 . S
Zn50 O51 2.028 . S
Zn50 O53 2.028 . S
Zn50 O56 2.035 . S
O51 Zn50 2.028 . S
O51 C57 1.247 . S
O52 Zn48 2.035 . S
O52 C57 1.258 1_565 S
O53 C46 1.247 . S
O53 Zn50 2.028 . S
O54 C46 1.258 1_565 S
O54 Zn48 2.035 . S
O55 Zn48 2.028 . S
O55 C58 1.247 1_565 S
O56 Zn50 2.035 . S
O56 C58 1.258 . S
C57 O51 1.247 . S
C57 O52 1.258 1_545 S
C58 O55 1.247 1_545 S
C58 O56 1.258 . S
C59 C60 1.369 1_455 S
C59 C61 1.419 . S
C59 H63 0.930 . S
C60 C59 1.369 1_655 S
C60 C69 1.429 . S
C61 C59 1.419 . S
C61 C62 1.353 1_455 S
C61 H64 0.929 . S
C62 C61 1.353 1_655 S
C62 C68 1.438 . S
H63 C59 0.930 . S
H64 C61 0.929 . S
S65 N66 1.613 . S
S65 N67 1.610 . S
N66 S65 1.613 . S
N66 C69 1.350 . S
N67 S65 1.610 . S
N67 C68 1.351 . S
C68 C62 1.438 . S
C68 N67 1.351 . S
C68 C69 1.434 . S
C69 C60 1.429 . S
C69 N66 1.350 . S
C69 C68 1.434 . S
C70 C71 1.369 . S
C70 C72 1.419 . S
C70 H74 0.930 . S
C71 C70 1.369 . S
C71 C80 1.429 1_565 S
C72 C70 1.419 . S
C72 C73 1.363 1_565 S
C72 H75 0.929 . S
C73 C72 1.363 1_545 S
C73 C79 1.428 . S
H74 C70 0.930 . S
H75 C72 0.929 . S
S76 N77 1.613 . S
S76 N78 1.610 . S
N77 S76 1.613 . S
N77 C80 1.350 . S
N78 S76 1.610 . S
N78 C79 1.351 . S
C79 C73 1.428 . S
C79 N78 1.351 . S
C79 C80 1.434 . S
C80 C71 1.429 1_545 S
C80 N77 1.350 . S
C80 C79 1.434 . S
C81 C82 1.369 . S
C81 C83 1.419 . S
C81 H85 0.930 . S
C82 C81 1.369 . S
C82 C91 1.429 1_455 S
C83 C81 1.419 . S
C83 C84 1.366 . S
C83 H86 0.929 . S
C84 C83 1.366 . S
C84 C90 1.425 1_455 S
H85 C81 0.930 . S
H86 C83 0.929 . S
S87 N88 1.613 . S
S87 N89 1.610 . S
N88 S87 1.613 . S
N88 C91 1.350 . S
N89 S87 1.610 . S
N89 C90 1.351 . S
C90 C84 1.425 1_655 S
C90 N89 1.351 . S
C90 C91 1.434 . S
C91 C82 1.429 1_655 S
C91 N88 1.350 . S
C91 C90 1.434 . S
C92 C93 1.369 . S
C92 C94 1.419 . S
C92 H96 0.930 . S
C93 C92 1.369 . S
C93 C102 1.429 1_545 S
C94 C92 1.419 . S
C94 C95 1.363 . S
C94 H97 0.929 . S
C95 C94 1.363 . S
C95 C101 1.428 1_545 S
H96 C92 0.930 . S
H97 C94 0.929 . S
S98 N99 1.613 . S
S98 N100 1.610 . S
N99 S98 1.613 . S
N99 C102 1.350 . S
N100 S98 1.610 . S
N100 C101 1.351 . S
C101 C95 1.428 1_565 S
C101 N100 1.351 . S
C101 C102 1.434 . S
C102 C93 1.429 1_565 S
C102 N99 1.350 . S
C102 C101 1.434 . S
C103 C104 1.369 . S
C103 C105 1.419 . S
C103 H107 0.930 . S
C104 C103 1.369 . S
C104 C113 1.429 1_655 S
C105 C103 1.419 . S
C105 C106 1.367 . S
C105 H108 0.929 . S
C106 C105 1.367 . S
C106 C112 1.424 1_655 S
H107 C103 0.930 . S
H108 C105 0.929 . S
S109 N110 1.613 . S
S109 N111 1.610 . S
N110 S109 1.613 . S
N110 C113 1.350 . S
N111 S109 1.610 . S
N111 C112 1.351 . S
C112 C106 1.424 1_455 S
C112 N111 1.351 . S
C112 C113 1.434 . S
C113 C104 1.429 1_455 S
C113 N110 1.350 . S
C113 C112 1.434 . S
C114 C115 1.369 1_545 S
C114 C116 1.419 . S
C114 H118 0.930 . S
C115 C114 1.369 1_565 S
C115 C124 1.429 . S
C116 C114 1.419 . S
C116 C117 1.371 . S
C116 H119 0.929 . S
C117 C116 1.371 . S
C117 C123 1.420 1_545 S
H118 C114 0.930 . S
H119 C116 0.929 . S
S120 N121 1.613 . S
S120 N122 1.610 . S
N121 S120 1.613 . S
N121 C124 1.350 . S
N122 S120 1.610 . S
N122 C123 1.351 . S
C123 C117 1.420 1_565 S
C123 N122 1.351 . S
C123 C124 1.434 . S
C124 C115 1.429 . S
C124 N121 1.350 . S
C124 C123 1.434 . S
C125 C126 1.369 1_655 S
C125 C127 1.419 . S
C125 H129 0.930 . S
C126 C125 1.369 1_455 S
C126 C135 1.429 . S
C127 C125 1.419 . S
C127 C128 1.352 1_655 S
C127 H130 0.929 . S
C128 C127 1.352 1_455 S
C128 C134 1.440 . S
H129 C125 0.930 . S
H130 C127 0.929 . S
S131 N132 1.613 . S
S131 N133 1.610 . S
N132 S131 1.613 . S
N132 C135 1.350 . S
N133 S131 1.610 . S
N133 C134 1.351 . S
C134 C128 1.440 . S
C134 N133 1.351 . S
C134 C135 1.434 . S
C135 C126 1.429 . S
C135 N132 1.350 . S
C135 C134 1.434 . S
C136 C137 1.369 1_565 S
C136 C138 1.419 . S
C136 H140 0.930 . S
C137 C136 1.369 1_545 S
C137 C146 1.429 . S
C138 C136 1.419 . S
C138 C139 1.363 1_565 S
C138 H141 0.929 . S
C139 C138 1.363 1_545 S
C139 C145 1.428 . S
H140 C136 0.930 . S
H141 C138 0.929 . S
S142 N143 1.613 . S
S142 N144 1.610 . S
N143 S142 1.613 . S
N143 C146 1.350 . S
N144 S142 1.610 . S
N144 C145 1.351 . S
C145 C139 1.428 . S
C145 N144 1.351 . S
C145 C146 1.434 . S
C146 C137 1.429 . S
C146 N143 1.350 . S
C146 C145 1.434 . S
C60 C30 1.399 . S
C62 C32 1.437 . S
C71 C1 1.466 . S
C73 C58 1.495 . S
C82 C0 1.393 1_455 S
C84 C44 1.453 . S
C93 C29 1.501 . S
C95 C46 1.535 . S
C104 C19 1.397 1_655 S
C106 C31 1.455 1_655 S
C115 C20 1.467 . S
C117 C57 1.496 . S
C128 C43 1.438 1_455 S
C126 C10 1.401 . S
C137 C2 1.500 . S
C139 C45 1.536 . S
