# Generated by pormake.
# Topology pth, (4,4)-cn, num edge types: 1
# Building blocks:
#     Node 0, Type 0, BuildingBlock: CEKHIL_clean_sbu_0, # of connection points: 4
#     Node 1, Type 0, BuildingBlock: CEKHIL_clean_sbu_0, # of connection points: 4
#     Node 2, Type 0, BuildingBlock: CEKHIL_clean_sbu_0, # of connection points: 4
#     Node 3, Type 1, BuildingBlock: MUDLON_clean_sbu_0, # of connection points: 4
#     Node 4, Type 1, BuildingBlock: MUDLON_clean_sbu_0, # of connection points: 4
#     Node 5, Type 1, BuildingBlock: MUDLON_clean_sbu_0, # of connection points: 4
#     Edge 6, Type (0, 1), BuildingBlock: OJICUG_clean_linker_0, # of connection points: 2
#     Edge 7, Type (0, 1), BuildingBlock: OJICUG_clean_linker_0, # of connection points: 2
#     Edge 8, Type (0, 1), BuildingBlock: OJICUG_clean_linker_0, # of connection points: 2
#     Edge 9, Type (0, 1), BuildingBlock: OJICUG_clean_linker_0, # of connection points: 2
#     Edge 10, Type (0, 1), BuildingBlock: OJICUG_clean_linker_0, # of connection points: 2
#     Edge 11, Type (0, 1), BuildingBlock: OJICUG_clean_linker_0, # of connection points: 2
#     Edge 12, Type (0, 1), BuildingBlock: OJICUG_clean_linker_0, # of connection points: 2
#     Edge 13, Type (0, 1), BuildingBlock: OJICUG_clean_linker_0, # of connection points: 2
#     Edge 14, Type (0, 1), BuildingBlock: OJICUG_clean_linker_0, # of connection points: 2
#     Edge 15, Type (0, 1), BuildingBlock: OJICUG_clean_linker_0, # of connection points: 2
#     Edge 16, Type (0, 1), BuildingBlock: OJICUG_clean_linker_0, # of connection points: 2
#     Edge 17, Type (0, 1), BuildingBlock: OJICUG_clean_linker_0, # of connection points: 2
# Relax obj value: 0.014
# Max RMSD: 0.063
# Mean RMSD: 0.051
data_MOF--net-pth--node1-CEKHIL_clean_sbu_0--node2-MUDLON_clean_sbu_0--edge1-OJICUG_clean_linker_0
_symmetry_space_group_name_H-M    P1
_symmetry_Int_Tables_number       1
_symmetry_cell_setting            triclinic
loop_
_symmetry_equiv_pos_as_xyz
'x, y, z'
_cell_length_a     16.619277
_cell_length_b     16.626425
_cell_length_c     43.591732
_cell_angle_alpha  91.025193
_cell_angle_beta   89.944502
_cell_angle_gamma 120.17149
loop_
_atom_site_label
_atom_site_type_symbol
_atom_site_fract_x
_atom_site_fract_y
_atom_site_fract_z
_atom_type_partial_charge
Co0 Co 0.04921 0.07306 0.13322 0.0
O1 O 0.97359 0.99063 0.16474 0.0
O2 O 0.08728 0.98213 0.14142 0.0
C3 C 0.07762 0.20495 0.15814 0.0
O4 O 0.14282 0.15123 0.1001 0.0
Co5 Co 0.97324 0.1845 0.1005 0.0
O6 O 0.10193 0.25451 0.08481 0.0
C7 C 0.89631 0.9879 0.08341 0.0
C8 C 0.02188 0.9496 0.16199 0.0
C9 C 0.15839 0.2237 0.08489 0.0
O10 O 0.95779 0.98685 0.10105 0.0
O11 O 0.88609 0.05896 0.08134 0.0
O12 O 0.12721 0.16664 0.16394 0.0
O13 O 0.00696 0.15736 0.13996 0.0
Co14 Co 0.03182 0.07818 0.43794 0.0
O15 O 0.95126 0.07673 0.40582 0.0
O16 O 0.05476 0.20313 0.43114 0.0
C17 C 0.07498 0.98622 0.41227 0.0
O18 O 0.13128 0.10793 0.47104 0.0
Co19 Co 0.99025 0.8953 0.46953 0.0
O20 O 0.12225 0.97224 0.48271 0.0
C21 C 0.87692 0.98119 0.48493 0.0
C22 C 0.99216 0.16638 0.40941 0.0
C23 C 0.16419 0.06085 0.48369 0.0
O24 O 0.93343 0.05444 0.46992 0.0
O25 O 0.88376 0.90786 0.48539 0.0
O26 O 0.11607 0.07468 0.40685 0.0
O27 O 0.00577 0.95617 0.43086 0.0
Co28 Co 0.04239 0.06725 0.76637 0.0
O29 O 0.13321 0.11921 0.73407 0.0
O30 O 0.1075 0.99868 0.76192 0.0
C31 C 0.92738 0.06744 0.73868 0.0
O32 O 0.9531 0.98727 0.79968 0.0
Co33 Co 0.94714 0.16369 0.79715 0.0
O34 O 0.86354 0.04321 0.81681 0.0
C35 C 0.14042 0.22057 0.81502 0.0
C36 C 0.15158 0.05345 0.73944 0.0
C37 C 0.88567 0.98022 0.81615 0.0
O38 O 0.1361 0.15413 0.79806 0.0
O39 O 0.07463 0.23939 0.81614 0.0
O40 O 0.94571 1.00039 0.73572 0.0
O41 O 0.98085 0.1345 0.75745 0.0
Mg42 Mg 0.08601 0.59588 0.28808 0.0
C43 C 0.97941 0.39738 0.31485 0.0
O44 O 0.98678 0.37001 0.28709 0.0
C45 C 0.97765 0.68227 0.25307 0.0
O46 O 0.92157 0.66593 0.27635 0.0
C47 C 0.09116 0.49558 0.23484 0.0
O48 O 0.01303 0.49724 0.2342 0.0
O49 O 0.1478 0.537 0.25716 0.0
O50 O 0.00297 0.48215 0.3197 0.0
O51 O 0.15795 0.71526 0.31982 0.0
C52 C 0.09679 0.71168 0.33835 0.0
O53 O 0.01129 0.64144 0.33571 0.0
O54 O 0.03805 0.65714 0.25407 0.0
Mg55 Mg 0.5558 0.111 0.61177 0.0
C56 C 0.4583 0.12894 0.56267 0.0
O57 O 0.44691 0.04489 0.5633 0.0
C58 C 0.67186 0.08435 0.65238 0.0
O59 O 0.6141 0.00627 0.63787 0.0
C60 C 0.42388 0.02439 0.66572 0.0
O61 O 0.50194 0.05271 0.6809 0.0
O62 O 0.42524 0.02722 0.63649 0.0
O63 O 0.51004 0.1883 0.58322 0.0
O64 O 0.61643 0.06361 0.57604 0.0
C65 C 0.60232 0.98506 0.5663 0.0
O66 O 0.53577 0.90841 0.57828 0.0
O67 O 0.66629 0.15652 0.64664 0.0
Mg68 Mg 0.57471 0.54902 0.94934 0.0
C69 C 0.4558 0.42517 0.89771 0.0
O70 O 0.52408 0.40687 0.89784 0.0
C71 C 0.68804 0.66846 1.00193 0.0
O72 O 0.70731 0.60085 1.00188 0.0
C73 C 0.46497 0.40581 0.99988 0.0
O74 O 0.5213 0.37376 0.99384 0.0
O75 O 0.47302 0.47481 0.98506 0.0
O76 O 0.45788 0.48428 0.91714 0.0
O77 O 0.63964 0.66014 0.91607 0.0
C78 C 0.70076 0.66583 0.89727 0.0
O79 O 0.72551 0.6022 0.89763 0.0
O80 O 0.63051 0.66552 0.98209 0.0
C81 C 0.1576 0.32771 0.1993 0.0
C82 C 0.09297 0.28971 0.17483 0.0
H83 H 0.20871 0.42392 0.23768 0.0
C84 C 0.03779 0.32889 0.16808 0.0
H85 H 0.20156 0.29913 0.20492 0.0
C86 C 0.04254 0.40042 0.18659 0.0
C87 C 0.10221 0.43413 0.2124 0.0
H88 H 0.98824 0.30193 0.1492 0.0
H89 H 0.99618 0.42653 0.18139 0.0
C90 C 0.16214 0.39941 0.21799 0.0
C91 C 0.80127 0.06422 0.50981 0.0
C92 C 0.80214 0.98143 0.5037 0.0
H93 H 0.73765 0.13024 0.53423 0.0
C94 C 0.73262 0.89855 0.51686 0.0
H95 H 0.85338 0.12922 0.50008 0.0
C96 C 0.66588 0.89895 0.53637 0.0
C97 C 0.66719 0.9823 0.54338 0.0
H98 H 0.7304 0.83313 0.5125 0.0
H99 H 0.61482 0.83428 0.54657 0.0
C100 C 0.73482 0.06469 0.52949 0.0
C101 C 0.76448 0.88933 0.85583 0.0
C102 C 0.83514 0.89779 0.83601 0.0
H103 H 0.66677 0.80993 0.89063 0.0
C104 C 0.85918 0.82778 0.83603 0.0
H105 H 0.74398 0.94171 0.85648 0.0
C106 C 0.81488 0.75222 0.85563 0.0
C107 C 0.74537 0.74457 0.87577 0.0
H108 H 0.91307 0.83162 0.82109 0.0
H109 H 0.83593 0.70024 0.85517 0.0
C110 C 0.7202 0.81369 0.87547 0.0
C111 C 0.93149 0.84106 0.20402 0.0
C112 C 0.00474 0.87311 0.18278 0.0
H113 H 0.86478 0.75534 0.24267 0.0
C114 C 0.06354 0.83539 0.18312 0.0
H115 H 0.88422 0.86806 0.2042 0.0
C116 C 0.05192 0.77022 0.20516 0.0
C117 C 0.98147 0.74165 0.22741 0.0
H118 H 0.12027 0.85832 0.16704 0.0
H119 H 0.10041 0.74471 0.20534 0.0
C120 C 0.92006 0.77621 0.2261 0.0
C121 C 0.26663 0.15654 0.52791 0.0
C122 C 0.25487 0.10855 0.49985 0.0
H123 H 0.34411 0.20346 0.57044 0.0
C124 C 0.32343 0.08823 0.49043 0.0
H125 H 0.21369 0.17162 0.5358 0.0
C126 C 0.3977 0.10718 0.50986 0.0
C127 C 0.40465 0.14603 0.53929 0.0
H128 H 0.31554 0.05082 0.46898 0.0
H129 H 0.44508 0.08338 0.50296 0.0
C130 C 0.3414 0.1752 0.54764 0.0
C131 C 0.29803 0.25863 0.8351 0.0
C132 C 0.22341 0.27583 0.83514 0.0
H133 H 0.42963 0.29215 0.85465 0.0
C134 C 0.22735 0.34469 0.85544 0.0
H135 H 0.29765 0.20635 0.8198 0.0
C136 C 0.30304 0.39378 0.8755 0.0
C137 C 0.37685 0.3755 0.87576 0.0
H138 H 0.17133 0.36008 0.85619 0.0
H139 H 0.30317 0.44549 0.89101 0.0
C140 C 0.37382 0.30789 0.85514 0.0
C141 C 0.85433 0.15461 0.71594 0.0
C142 C 0.85851 0.07237 0.71845 0.0
H143 H 0.79257 0.2241 0.69278 0.0
C144 C 0.80009 0.99539 0.69974 0.0
H145 H 0.899 0.21534 0.73003 0.0
C146 C 0.74009 1.00049 0.67863 0.0
C147 C 0.73666 0.08285 0.67547 0.0
H148 H 0.80144 0.93107 0.70106 0.0
H149 H 0.69689 0.93936 0.66449 0.0
C150 C 0.79398 0.15993 0.69453 0.0
C151 C 0.77306 0.90223 0.04258 0.0
C152 C 0.83811 0.90421 0.06372 0.0
H153 H 0.67437 0.82634 1.00653 0.0
C154 C 0.84999 0.82631 0.06505 0.0
H155 H 0.76191 0.96082 0.0409 0.0
C156 C 0.80001 0.74957 0.04538 0.0
C157 C 0.73658 0.74834 0.02381 0.0
H158 H 0.89913 0.82487 0.08102 0.0
H159 H 0.81224 0.69162 0.04685 0.0
C160 C 0.72282 0.82511 0.02285 0.0
C161 C 0.05487 0.82833 0.40555 0.0
C162 C 0.09902 0.92144 0.39655 0.0
H163 H 0.02225 0.68959 0.39435 0.0
C164 C 0.15765 0.94815 0.37082 0.0
H165 H 0.0103 0.80554 0.42545 0.0
C166 C 0.16522 0.88097 0.35296 0.0
C167 C 0.11406 0.78662 0.36068 0.0
H168 H 0.19293 0.01963 0.36344 0.0
H169 H 0.20493 0.90169 0.33196 0.0
C170 C 0.06215 0.76183 0.38781 0.0
C171 C 0.22938 0.06663 0.68915 0.0
C172 C 0.21602 0.03882 0.71987 0.0
H173 H 0.30288 0.07985 0.6474 0.0
C174 C 0.26403 0.99638 0.73152 0.0
H175 H 0.19225 0.09839 0.67947 0.0
C176 C 0.32833 0.98689 0.71328 0.0
C177 C 0.3435 0.01689 0.68278 0.0
H178 H 0.25453 0.97377 0.75506 0.0
H179 H 0.36813 0.95844 0.72329 0.0
C180 C 0.2916 0.05466 0.67066 0.0
C181 C 0.30018 0.23542 0.05879 0.0
C182 C 0.24201 0.27237 0.06515 0.0
H183 H 0.41642 0.24837 0.03312 0.0
C184 C 0.26123 0.3556 0.05096 0.0
H185 H 0.28757 0.1716 0.06928 0.0
C186 C 0.3342 0.39903 0.0303 0.0
C187 C 0.3907 0.36096 0.02317 0.0
H188 H 0.21883 0.38704 0.05537 0.0
H189 H 0.34541 0.46214 1.01961 0.0
C190 C 0.37385 0.27934 0.03799 0.0
C191 C 0.01231 0.31968 0.39277 0.0
C192 C 0.9753 0.22379 0.38748 0.0
H193 H 0.04013 0.44969 0.37422 0.0
C194 C 0.92886 0.18411 0.35949 0.0
H195 H 0.04816 0.35226 0.41412 0.0
C196 C 0.92537 0.23994 0.33648 0.0
C197 C 0.96657 0.33652 0.34112 0.0
H198 H 0.89936 0.11042 0.35465 0.0
H199 H 0.89353 0.20792 0.31459 0.0
C200 C 0.00718 0.37536 0.36994 0.0
loop_
_geom_bond_atom_site_label_1
_geom_bond_atom_site_label_2
_geom_bond_distance
_geom_bond_site_symmetry_2
_ccdc_geom_bond_type
Co0 O1 2.216 1_445 S
Co0 O2 2.091 1_545 S
Co0 O4 2.004 . S
Co0 O10 2.021 1_445 S
Co0 O12 2.137 . S
Co0 O13 2.244 1_455 S
O1 Co0 2.216 1_665 S
O1 C8 1.247 1_655 S
O2 Co0 2.091 1_565 S
O2 C8 1.261 . S
C3 O12 1.247 . S
C3 O13 1.272 1_455 S
O4 Co0 2.004 . S
O4 C9 1.259 . S
Co5 O6 2.061 1_655 S
Co5 O11 2.052 . S
Co5 O13 2.135 . S
O6 Co5 2.061 1_455 S
O6 C9 1.235 . S
C7 O10 1.238 . S
C7 O11 1.241 1_565 S
C8 O1 1.247 1_455 S
C8 O2 1.261 . S
C9 O4 1.259 . S
C9 O6 1.235 . S
O10 Co0 2.021 1_665 S
O10 C7 1.238 . S
O11 Co5 2.052 . S
O11 C7 1.241 1_545 S
O12 Co0 2.137 . S
O12 C3 1.247 . S
O13 Co0 2.244 1_655 S
O13 C3 1.272 1_655 S
O13 Co5 2.135 . S
Co14 O15 2.216 1_455 S
Co14 O16 2.091 . S
Co14 O18 2.004 . S
Co14 O24 2.026 . S
Co14 O26 2.137 . S
Co14 O27 2.244 1_545 S
O15 Co14 2.216 1_655 S
O15 C22 1.247 1_655 S
O16 Co14 2.091 . S
O16 C22 1.261 . S
C17 O26 1.247 1_565 S
C17 O27 1.277 . S
O18 Co14 2.004 . S
O18 C23 1.259 . S
Co19 O20 2.061 1_655 S
Co19 O25 2.052 . S
Co19 O27 2.135 1_655 S
O20 Co19 2.061 1_455 S
O20 C23 1.235 1_565 S
C21 O24 1.234 1_655 S
C21 O25 1.241 1_545 S
C22 O15 1.247 1_455 S
C22 O16 1.261 . S
C23 O18 1.259 . S
C23 O20 1.235 1_545 S
O24 Co14 2.026 . S
O24 C21 1.234 1_455 S
O25 Co19 2.052 . S
O25 C21 1.241 1_565 S
O26 Co14 2.137 . S
O26 C17 1.247 1_545 S
O27 Co14 2.244 1_565 S
O27 C17 1.277 . S
O27 Co19 2.135 1_455 S
Co28 O29 2.216 . S
Co28 O30 2.091 1_545 S
Co28 O32 2.004 1_445 S
Co28 O38 2.021 . S
Co28 O40 2.137 1_445 S
Co28 O41 2.244 1_455 S
O29 Co28 2.216 . S
O29 C36 1.247 . S
O30 Co28 2.091 1_565 S
O30 C36 1.261 1_565 S
C31 O40 1.247 1_545 S
C31 O41 1.272 . S
O32 Co28 2.004 1_665 S
O32 C37 1.259 . S
Co33 O34 2.061 . S
Co33 O39 2.052 1_655 S
Co33 O41 2.135 . S
O34 Co33 2.061 . S
O34 C37 1.235 1_545 S
C35 O38 1.238 . S
C35 O39 1.241 . S
C36 O29 1.247 . S
C36 O30 1.261 1_545 S
C37 O32 1.259 . S
C37 O34 1.235 1_565 S
O38 Co28 2.021 . S
O38 C35 1.238 . S
O39 Co33 2.052 1_455 S
O39 C35 1.241 . S
O40 Co28 2.137 1_665 S
O40 C31 1.247 1_565 S
O41 Co28 2.244 1_655 S
O41 C31 1.272 . S
O41 Co33 2.135 . S
Mg42 O49 2.141 . S
Mg42 O50 2.048 . S
Mg42 O51 2.048 . S
Mg42 O54 2.141 . S
C43 O44 1.313 1_455 S
C43 O50 1.195 . S
O44 C43 1.313 1_655 S
C45 O46 1.245 1_455 S
C45 O54 1.289 . S
O46 C45 1.245 1_655 S
C47 O48 1.245 1_455 S
C47 O49 1.289 . S
O48 C47 1.245 1_655 S
O49 Mg42 2.141 . S
O49 C47 1.289 . S
O50 Mg42 2.048 . S
O50 C43 1.195 . S
O51 Mg42 2.048 . S
O51 C52 1.195 . S
C52 O51 1.195 . S
C52 O53 1.313 1_455 S
O53 C52 1.313 1_655 S
O54 Mg42 2.141 . S
O54 C45 1.289 . S
Mg55 O62 2.141 . S
Mg55 O63 2.048 . S
Mg55 O64 2.048 . S
Mg55 O67 2.141 . S
C56 O57 1.313 1_545 S
C56 O63 1.195 . S
O57 C56 1.313 1_565 S
C58 O59 1.245 1_545 S
C58 O67 1.289 . S
O59 C58 1.245 1_565 S
C60 O61 1.245 1_545 S
C60 O62 1.289 . S
O61 C60 1.245 1_565 S
O62 Mg55 2.141 . S
O62 C60 1.289 . S
O63 Mg55 2.048 . S
O63 C56 1.195 . S
O64 Mg55 2.048 . S
O64 C65 1.195 . S
C65 O64 1.195 . S
C65 O66 1.313 1_545 S
O66 C65 1.313 1_565 S
O67 Mg55 2.141 . S
O67 C58 1.289 . S
Mg68 O75 2.141 . S
Mg68 O76 2.048 . S
Mg68 O77 2.048 . S
Mg68 O80 2.141 . S
C69 O70 1.313 . S
C69 O76 1.195 . S
O70 C69 1.313 . S
C71 O72 1.245 . S
C71 O80 1.289 . S
O72 C71 1.245 . S
C73 O74 1.245 . S
C73 O75 1.289 . S
O74 C73 1.245 . S
O75 Mg68 2.141 . S
O75 C73 1.289 . S
O76 Mg68 2.048 . S
O76 C69 1.195 . S
O77 Mg68 2.048 . S
O77 C78 1.195 . S
C78 O77 1.195 . S
C78 O79 1.313 . S
O79 C78 1.313 . S
O80 Mg68 2.141 . S
O80 C71 1.289 . S
C81 C82 1.387 . S
C81 H85 0.950 . S
C81 C90 1.390 . S
C82 C81 1.387 . S
C82 C84 1.387 1_455 S
H83 C90 0.950 . S
C84 C82 1.387 1_655 S
C84 C86 1.390 . S
C84 H88 0.950 . S
H85 C81 0.950 . S
C86 C84 1.390 . S
C86 C87 1.387 1_655 S
C86 H89 0.950 . S
C87 C86 1.387 1_455 S
C87 C90 1.387 . S
H88 C84 0.950 . S
H89 C86 0.950 . S
C90 C81 1.390 . S
C90 H83 0.950 . S
C90 C87 1.387 . S
C91 C92 1.387 . S
C91 H95 0.950 . S
C91 C100 1.390 . S
C92 C91 1.387 . S
C92 C94 1.387 1_545 S
H93 C100 0.950 . S
C94 C92 1.387 1_565 S
C94 C96 1.390 . S
C94 H98 0.950 . S
H95 C91 0.950 . S
C96 C94 1.390 . S
C96 C97 1.387 1_565 S
C96 H99 0.950 . S
C97 C96 1.387 1_545 S
C97 C100 1.387 . S
H98 C94 0.950 . S
H99 C96 0.950 . S
C100 C91 1.390 . S
C100 H93 0.950 . S
C100 C97 1.387 . S
C101 C102 1.387 . S
C101 H105 0.950 . S
C101 C110 1.390 . S
C102 C101 1.387 . S
C102 C104 1.387 . S
H103 C110 0.950 . S
C104 C102 1.387 . S
C104 C106 1.390 . S
C104 H108 0.950 . S
H105 C101 0.950 . S
C106 C104 1.390 . S
C106 C107 1.387 . S
C106 H109 0.950 . S
C107 C106 1.387 . S
C107 C110 1.387 . S
H108 C104 0.950 . S
H109 C106 0.950 . S
C110 C101 1.390 . S
C110 H103 0.950 . S
C110 C107 1.387 . S
C111 C112 1.387 1_655 S
C111 H115 0.950 . S
C111 C120 1.390 . S
C112 C111 1.387 1_455 S
C112 C114 1.387 . S
H113 C120 0.950 . S
C114 C112 1.387 . S
C114 C116 1.390 . S
C114 H118 0.950 . S
H115 C111 0.950 . S
C116 C114 1.390 . S
C116 C117 1.387 . S
C116 H119 0.950 . S
C117 C116 1.387 . S
C117 C120 1.387 1_455 S
H118 C114 0.950 . S
H119 C116 0.950 . S
C120 C111 1.390 . S
C120 H113 0.950 . S
C120 C117 1.387 1_655 S
C121 C122 1.387 . S
C121 H125 0.950 . S
C121 C130 1.390 . S
C122 C121 1.387 . S
C122 C124 1.387 1_545 S
H123 C130 0.950 . S
C124 C122 1.387 1_565 S
C124 C126 1.390 . S
C124 H128 0.950 . S
H125 C121 0.950 . S
C126 C124 1.390 . S
C126 C127 1.387 1_565 S
C126 H129 0.950 . S
C127 C126 1.387 1_545 S
C127 C130 1.387 . S
H128 C124 0.950 . S
H129 C126 0.950 . S
C130 C121 1.390 . S
C130 H123 0.950 . S
C130 C127 1.387 . S
C131 C132 1.387 . S
C131 H135 0.950 . S
C131 C140 1.390 . S
C132 C131 1.387 . S
C132 C134 1.387 . S
H133 C140 0.950 . S
C134 C132 1.387 . S
C134 C136 1.390 . S
C134 H138 0.950 . S
H135 C131 0.950 . S
C136 C134 1.390 . S
C136 C137 1.387 . S
C136 H139 0.950 . S
C137 C136 1.387 . S
C137 C140 1.387 . S
H138 C134 0.950 . S
H139 C136 0.950 . S
C140 C131 1.390 . S
C140 H133 0.950 . S
C140 C137 1.387 . S
C141 C142 1.387 . S
C141 H145 0.950 . S
C141 C150 1.390 . S
C142 C141 1.387 . S
C142 C144 1.387 1_545 S
H143 C150 0.950 . S
C144 C142 1.387 1_565 S
C144 C146 1.390 . S
C144 H148 0.950 . S
H145 C141 0.950 . S
C146 C144 1.390 . S
C146 C147 1.387 1_565 S
C146 H149 0.950 . S
C147 C146 1.387 1_545 S
C147 C150 1.387 . S
H148 C144 0.950 . S
H149 C146 0.950 . S
C150 C141 1.390 . S
C150 H143 0.950 . S
C150 C147 1.387 . S
C151 C152 1.387 . S
C151 H155 0.950 . S
C151 C160 1.390 . S
C152 C151 1.387 . S
C152 C154 1.387 . S
H153 C160 0.950 . S
C154 C152 1.387 . S
C154 C156 1.390 1_554 S
C154 H158 0.950 . S
H155 C151 0.950 . S
C156 C154 1.390 1_556 S
C156 C157 1.387 . S
C156 H159 0.950 . S
C157 C156 1.387 . S
C157 C160 1.387 1_556 S
H158 C154 0.950 . S
H159 C156 0.950 . S
C160 C151 1.390 . S
C160 H153 0.950 . S
C160 C157 1.387 1_554 S
C161 C162 1.387 . S
C161 H165 0.950 1_455 S
C161 C170 1.390 1_455 S
C162 C161 1.387 . S
C162 C164 1.387 . S
H163 C170 0.950 . S
C164 C162 1.387 . S
C164 C166 1.390 . S
C164 H168 0.950 . S
H165 C161 0.950 1_655 S
C166 C164 1.390 . S
C166 C167 1.387 . S
C166 H169 0.950 . S
C167 C166 1.387 . S
C167 C170 1.388 1_455 S
H168 C164 0.950 . S
H169 C166 0.950 . S
C170 C161 1.390 1_655 S
C170 H163 0.950 . S
C170 C167 1.388 1_655 S
C171 C172 1.387 . S
C171 H175 0.950 . S
C171 C180 1.390 . S
C172 C171 1.387 . S
C172 C174 1.387 1_545 S
H173 C180 0.950 . S
C174 C172 1.387 1_565 S
C174 C176 1.390 . S
C174 H178 0.950 . S
H175 C171 0.950 . S
C176 C174 1.390 . S
C176 C177 1.387 1_565 S
C176 H179 0.950 . S
C177 C176 1.387 1_545 S
C177 C180 1.387 . S
H178 C174 0.950 . S
H179 C176 0.950 . S
C180 C171 1.390 . S
C180 H173 0.950 . S
C180 C177 1.387 . S
C181 C182 1.387 . S
C181 H185 0.950 . S
C181 C190 1.390 1_554 S
C182 C181 1.387 . S
C182 C184 1.387 . S
H183 C190 0.950 . S
C184 C182 1.387 . S
C184 C186 1.390 . S
C184 H188 0.950 . S
H185 C181 0.950 . S
C186 C184 1.390 . S
C186 C187 1.387 1_554 S
C186 H189 0.950 . S
C187 C186 1.387 1_556 S
C187 C190 1.387 . S
H188 C184 0.950 . S
H189 C186 0.950 . S
C190 C181 1.390 1_556 S
C190 H183 0.950 . S
C190 C187 1.387 . S
C191 C192 1.387 . S
C191 H195 0.950 . S
C191 C200 1.390 . S
C192 C191 1.387 . S
C192 C194 1.387 . S
H193 C200 0.950 . S
C194 C192 1.387 . S
C194 C196 1.390 . S
C194 H198 0.950 1_455 S
H195 C191 0.950 . S
C196 C194 1.390 . S
C196 C197 1.387 . S
C196 H199 0.950 1_455 S
C197 C196 1.387 . S
C197 C200 1.387 . S
H198 C194 0.950 1_655 S
H199 C196 0.950 1_655 S
C200 C191 1.390 . S
C200 H193 0.950 . S
C200 C197 1.387 . S
C87 C47 1.436 . S
C82 C3 1.438 . S
C92 C21 1.505 . S
C97 C65 1.524 . S
C102 C37 1.485 . S
C107 C78 1.499 . S
C112 C8 1.444 . S
C117 C45 1.441 . S
C127 C56 1.497 . S
C122 C23 1.476 . S
C132 C35 1.481 . S
C137 C69 1.499 . S
C147 C58 1.443 . S
C142 C31 1.442 . S
C152 C7 1.423 . S
C157 C71 1.437 . S
C167 C52 1.495 . S
C162 C17 1.495 . S
C177 C60 1.403 . S
C172 C36 1.411 . S
C187 C73 1.438 . S
C182 C9 1.431 . S
C192 C22 1.500 . S
C197 C43 1.499 . S
