# Generated by pormake.
# Topology tsx, (6,3)-cn, num edge types: 1
# Building blocks:
#     Node 0, Type 0, BuildingBlock: CIFDUS_clean_sbu_1, # of connection points: 6
#     Node 1, Type 0, BuildingBlock: CIFDUS_clean_sbu_1, # of connection points: 6
#     Node 2, Type 1, BuildingBlock: WUSLED_clean_sbu_0, # of connection points: 3
#     Node 3, Type 1, BuildingBlock: WUSLED_clean_sbu_0, # of connection points: 3
#     Node 4, Type 1, BuildingBlock: WUSLED_clean_sbu_0, # of connection points: 3
#     Node 5, Type 1, BuildingBlock: WUSLED_clean_sbu_0, # of connection points: 3
#     Edge 6, Type (0, 1), None
#     Edge 7, Type (0, 1), None
#     Edge 8, Type (0, 1), None
#     Edge 9, Type (0, 1), None
#     Edge 10, Type (0, 1), None
#     Edge 11, Type (0, 1), None
#     Edge 12, Type (0, 1), None
#     Edge 13, Type (0, 1), None
#     Edge 14, Type (0, 1), None
#     Edge 15, Type (0, 1), None
#     Edge 16, Type (0, 1), None
#     Edge 17, Type (0, 1), None
# Relax obj value: 0.120
# Max RMSD: 0.152
# Mean RMSD: 0.114
data_MOF--net-tsx--node1-CIFDUS_clean_sbu_1--node2-WUSLED_clean_sbu_0--edge1-none
_symmetry_space_group_name_H-M    P1
_symmetry_Int_Tables_number       1
_symmetry_cell_setting            triclinic
loop_
_symmetry_equiv_pos_as_xyz
'x, y, z'
_cell_length_a     10.942806
_cell_length_b     17.805229
_cell_length_c     26.857604
_cell_angle_alpha  102.09233
_cell_angle_beta   104.39333
_cell_angle_gamma 93.734068
loop_
_atom_site_label
_atom_site_type_symbol
_atom_site_fract_x
_atom_site_fract_y
_atom_site_fract_z
_atom_type_partial_charge
O0 O 1.11024 0.1186 0.04748 0.0
Mn1 Mn 0.21142 0.02235 0.04656 0.0
O2 O 0.93922 0.07897 0.97601 0.0
Mn3 Mn 0.96327 0.97632 0.95292 0.0
O4 O 0.30634 0.92281 1.03996 0.0
O5 O 0.37316 0.0931 0.08654 0.0
Mn6 Mn 0.47255 0.04394 0.1279 0.0
O7 O 0.18226 0.00982 0.11842 0.0
O8 O 0.51131 0.96054 0.08309 0.0
O9 O 0.24157 0.03382 0.97397 0.0
O10 O 1.07369 0.9648 0.9102 0.0
O11 O 0.55629 0.14213 0.14163 0.0
O12 O 0.37946 0.02213 0.17352 0.0
C13 C 0.96238 0.90226 1.00777 0.0
C14 C 1.00866 0.13097 1.01511 0.0
C15 C 0.42363 0.91087 0.0505 0.0
C16 C 0.45619 0.15364 0.10796 0.0
C17 C 0.25846 0.01085 0.16356 0.0
C18 C 0.18495 0.00256 0.92499 0.0
O19 O 1.05163 0.95384 1.01029 0.0
O20 O 0.86799 0.89498 0.96648 0.0
O21 O 0.61025 0.61861 0.54748 0.0
Mn22 Mn 0.71143 0.52235 0.54657 0.0
O23 O 0.43923 0.57897 0.47601 0.0
Mn24 Mn 0.46329 0.47632 0.45292 0.0
O25 O 0.80635 0.42281 0.53997 0.0
O26 O 0.87318 0.5931 0.58654 0.0
Mn27 Mn 0.97257 0.54394 0.62791 0.0
O28 O 0.68227 0.50983 0.61842 0.0
O29 O 1.01133 0.46055 0.5831 0.0
O30 O 0.74158 0.53382 0.47397 0.0
O31 O 0.57371 0.4648 0.4102 0.0
O32 O 1.05631 0.64214 0.64163 0.0
O33 O 0.87948 0.52215 0.67353 0.0
C34 C 0.4624 0.40226 0.50778 0.0
C35 C 0.50867 0.63097 0.51512 0.0
C36 C 0.92364 0.41087 0.55051 0.0
C37 C 0.9562 0.65364 0.60797 0.0
C38 C 0.75847 0.51087 0.66356 0.0
C39 C 0.68496 0.50256 0.42499 0.0
O40 O 0.55164 0.45385 0.51029 0.0
O41 O 0.36801 0.39498 0.46648 0.0
C42 C 1.04952 0.196 0.48808 0.0
C43 C 1.11604 0.26714 0.49014 0.0
C44 C 0.96014 0.33671 0.52535 0.0
C45 C 1.07234 0.3367 0.50893 0.0
C46 C 0.88928 0.26562 0.52049 0.0
C47 C 0.93405 0.19573 0.50228 0.0
U48 U 0.20545 -0.00422 0.45111 0.0
O49 O 0.3692 0.98076 0.51371 0.0
O50 O 0.18567 0.91074 0.49803 0.0
C51 C 0.30713 0.92232 0.5235 0.0
C52 C 1.10538 0.12331 0.47473 0.0
C53 C 0.37029 0.85187 0.52263 0.0
C54 C 0.47759 0.75974 0.56827 0.0
C55 C 0.42634 0.83029 0.56981 0.0
C56 C 0.41894 0.73344 0.47255 0.0
C57 C 0.47095 0.70981 0.51942 0.0
C58 C 0.36971 0.80383 0.47414 0.0
C59 C 0.18884 0.96418 0.30262 0.0
C60 C 1.16094 0.92339 0.20779 0.0
C61 C 0.23347 0.05748 0.25331 0.0
C62 C 0.22276 0.04079 0.30067 0.0
C63 C 0.20761 -0.00169 0.20715 0.0
C64 C 1.15214 0.90635 0.25546 0.0
C65 C 0.21448 0.94147 0.35358 0.0
O66 O 1.03861 0.0546 0.46186 0.0
O67 O 0.22536 0.1232 0.4743 0.0
O68 O 1.11657 0.92303 0.37069 0.0
O69 O 0.30999 0.9837 0.39098 0.0
H70 H 0.20415 0.26912 0.47872 0.0
H71 H 1.12755 0.39078 0.51144 0.0
H72 H 0.80271 0.26408 0.53308 0.0
H73 H 0.88061 0.14168 0.50106 0.0
H74 H 0.5172 0.74287 0.60487 0.0
H75 H 0.42774 0.86706 0.60764 0.0
H76 H 0.41442 0.69666 0.43432 0.0
H77 H 0.32801 0.81987 0.4374 0.0
H78 H 1.14239 0.87682 0.17266 0.0
H79 H 0.27071 0.11551 0.25354 0.0
H80 H 0.25091 0.08654 0.33646 0.0
H81 H 1.1261 0.84689 0.25618 0.0
C82 C 0.99512 0.8872 0.59917 0.0
C83 C 0.98991 0.86917 0.64685 0.0
C84 C 0.93781 0.73263 0.60233 0.0
C85 C 0.96268 0.79213 0.64851 0.0
C86 C 0.92853 0.75172 0.55371 0.0
C87 C 0.95782 0.82877 0.5522 0.0
U88 U 0.22762 0.08197 0.65293 0.0
O89 O 0.36062 0.11363 0.60902 0.0
O90 O 0.20649 0.18427 0.61908 0.0
C91 C 0.30455 0.17408 0.59939 0.0
C92 C 1.06109 0.96112 0.59805 0.0
C93 C 0.38174 0.24219 0.5945 0.0
C94 C 0.51121 0.28598 0.54184 0.0
C95 C 0.47217 0.2292 0.56546 0.0
C96 C 0.38298 0.37335 0.58138 0.0
C97 C 0.46132 0.35669 0.54734 0.0
C98 C 0.3434 0.31647 0.60496 0.0
C99 C 0.30547 0.07099 0.79926 0.0
C100 C 0.32695 0.087 0.89328 0.0
C101 C 0.19436 0.97595 0.83061 0.0
C102 C 0.22748 0.00102 0.78918 0.0
C103 C 0.2405 0.02008 0.88302 0.0
C104 C 0.35823 0.11258 0.85165 0.0
C105 C 0.32312 0.10508 0.75578 0.0
O106 O 1.02766 0.02633 0.62108 0.0
O107 O 0.18454 0.96255 0.60672 0.0
O108 O 0.37274 0.06332 0.7211 0.0
O109 O 0.22639 0.13809 0.73383 0.0
H110 H 1.01525 0.91359 0.68312 0.0
H111 H 0.97037 0.7784 0.68654 0.0
H112 H 0.91136 0.7067 0.51792 0.0
H113 H 0.96116 0.84175 0.51487 0.0
H114 H 0.57004 0.27169 0.51502 0.0
H115 H 0.50233 0.17236 0.55617 0.0
H116 H 0.34265 0.42757 0.58567 0.0
H117 H 0.273 0.32827 0.62672 0.0
H118 H 0.36432 0.12222 0.93302 0.0
H119 H 1.12871 0.92359 0.82134 0.0
H120 H 0.18869 0.96753 0.74911 0.0
H121 H 0.4194 0.16664 0.86021 0.0
C122 C 0.5495 0.696 0.98808 0.0
C123 C 0.61602 0.76713 0.99014 0.0
C124 C 0.46012 0.83671 1.02534 0.0
C125 C 0.57232 0.8367 1.00892 0.0
C126 C 0.38926 0.76562 1.02049 0.0
C127 C 0.43404 0.69573 1.00228 0.0
U128 U 0.70543 0.49577 0.95111 0.0
O129 O 0.86918 0.48076 1.01372 0.0
O130 O 0.68565 0.41074 0.99803 0.0
C131 C 0.80711 0.42231 1.0235 0.0
C132 C 0.60536 0.62331 0.97473 0.0
C133 C 0.87027 0.35186 1.02263 0.0
C134 C 0.97756 0.25973 0.06827 0.0
C135 C 0.92631 0.33027 0.06981 0.0
C136 C 0.91894 0.23344 0.97255 0.0
C137 C 0.97093 0.20981 1.01942 0.0
C138 C 0.86971 0.30383 0.97414 0.0
C139 C 0.68884 0.4642 0.80263 0.0
C140 C 0.66091 0.42342 0.70779 0.0
C141 C 0.73351 0.5575 0.75332 0.0
C142 C 0.7228 0.5408 0.80068 0.0
C143 C 0.70762 0.49833 0.70716 0.0
C144 C 0.6521 0.40637 0.75547 0.0
C145 C 0.71448 0.44148 0.85358 0.0
O146 O 0.53859 0.5546 0.96186 0.0
O147 O 0.72534 0.6232 0.97431 0.0
O148 O 0.61657 0.42303 0.87069 0.0
O149 O 0.80999 0.4837 0.89099 0.0
H150 H 0.70413 0.76911 0.97871 0.0
H151 H 0.62753 0.89078 1.01142 0.0
H152 H 0.3027 0.76408 1.03308 0.0
H153 H 0.3806 0.64168 1.00107 0.0
H154 H 1.01715 0.24285 0.10487 0.0
H155 H 0.9277 0.36704 0.10764 0.0
H156 H 0.91444 0.19667 0.93432 0.0
H157 H 0.82802 0.31987 0.9374 0.0
H158 H 0.64233 0.37685 0.67266 0.0
H159 H 0.77078 0.61552 0.75356 0.0
H160 H 0.75097 0.58655 0.83647 0.0
H161 H 0.62603 0.34691 0.75617 0.0
C162 C 0.49512 0.3872 0.09917 0.0
C163 C 0.48992 0.36917 0.14686 0.0
C164 C 0.4378 0.23262 0.10233 0.0
C165 C 0.46269 0.29213 0.14852 0.0
C166 C 0.42851 0.25172 0.05372 0.0
C167 C 0.4578 0.32877 0.0522 0.0
U168 U 0.72761 0.58197 0.15294 0.0
O169 O 0.86061 0.61363 0.10902 0.0
O170 O 0.70647 0.68427 0.11908 0.0
C171 C 0.80454 0.67408 0.09939 0.0
C172 C 0.56108 0.46112 0.09805 0.0
C173 C 0.88173 0.7422 0.0945 0.0
C174 C 1.0112 0.78598 1.04184 0.0
C175 C 0.97216 0.72921 0.06546 0.0
C176 C 0.88295 0.87335 0.08137 0.0
C177 C 0.96129 0.85669 0.04734 0.0
C178 C 0.84337 0.81647 0.10495 0.0
C179 C 0.80548 0.57099 0.29927 0.0
C180 C 0.82696 0.587 0.39329 0.0
C181 C 0.69438 0.47594 0.33062 0.0
C182 C 0.72749 0.50102 0.28918 0.0
C183 C 0.74052 0.52008 0.38303 0.0
C184 C 0.85824 0.61258 0.35165 0.0
C185 C 0.82312 0.60508 0.25578 0.0
O186 O 0.52766 0.52633 0.12109 0.0
O187 O 0.68453 0.46256 0.10672 0.0
O188 O 0.87274 0.56332 0.2211 0.0
O189 O 0.72639 0.63809 0.23384 0.0
H190 H 0.51527 0.41358 0.18312 0.0
H191 H 0.47039 0.27839 0.18655 0.0
H192 H 0.41134 0.20671 1.01792 0.0
H193 H 0.46114 0.34176 1.01487 0.0
H194 H 1.07004 0.77169 1.01502 0.0
H195 H 1.00233 0.67237 0.05618 0.0
H196 H 0.84262 0.92756 0.08566 0.0
H197 H 0.77296 0.82827 0.12672 0.0
H198 H 0.86432 0.62222 0.43302 0.0
H199 H 0.62873 0.42359 0.32135 0.0
H200 H 0.6887 0.46753 0.24912 0.0
H201 H 0.91941 0.66665 0.36021 0.0
loop_
_geom_bond_atom_site_label_1
_geom_bond_atom_site_label_2
_geom_bond_distance
_geom_bond_site_symmetry_2
_ccdc_geom_bond_type
O0 Mn1 2.163 1_654 S
O0 C14 1.244 1_554 S
Mn1 O0 2.163 1_456 S
Mn1 O4 2.160 1_545 S
Mn1 O5 2.221 1_556 S
Mn1 O7 2.163 1_556 S
Mn1 O9 2.160 . S
Mn1 O19 2.221 1_445 S
O2 Mn3 2.097 . S
O2 C14 1.256 . S
Mn3 O2 2.097 . S
Mn3 O10 2.094 . S
Mn3 O19 2.284 1_545 S
Mn3 O20 2.244 1_545 S
O4 Mn1 2.160 1_565 S
O4 C15 1.239 1_556 S
O5 Mn1 2.221 1_554 S
O5 Mn6 2.290 . S
O5 C16 1.278 . S
Mn6 O5 2.290 . S
Mn6 O8 2.089 1_545 S
Mn6 O11 2.251 . S
Mn6 O12 2.087 . S
O7 Mn1 2.163 1_554 S
O7 C17 1.244 . S
O8 Mn6 2.089 1_565 S
O8 C15 1.256 . S
O9 Mn1 2.160 . S
O9 C18 1.239 . S
O10 Mn3 2.094 . S
O10 C18 1.256 1_655 S
O11 Mn6 2.251 . S
O11 C16 1.241 . S
O12 Mn6 2.087 . S
O12 C17 1.256 . S
C13 O19 1.270 1_554 S
C13 O20 1.237 1_554 S
C14 O0 1.244 1_556 S
C14 O2 1.256 . S
C15 O4 1.239 1_554 S
C15 O8 1.256 . S
C16 O5 1.278 . S
C16 O11 1.241 . S
C17 O7 1.244 . S
C17 O12 1.256 . S
C18 O9 1.239 . S
C18 O10 1.256 1_455 S
O19 Mn1 2.221 1_665 S
O19 Mn3 2.284 1_565 S
O19 C13 1.270 1_556 S
O20 Mn3 2.244 1_565 S
O20 C13 1.237 1_556 S
O21 Mn22 2.163 . S
O21 C35 1.244 . S
Mn22 O21 2.163 . S
Mn22 O25 2.160 . S
Mn22 O26 2.221 . S
Mn22 O28 2.163 . S
Mn22 O30 2.160 . S
Mn22 O40 2.221 . S
O23 Mn24 2.087 . S
O23 C35 1.256 . S
Mn24 O23 2.087 . S
Mn24 O31 2.089 . S
Mn24 O40 2.290 . S
Mn24 O41 2.251 . S
O25 Mn22 2.160 . S
O25 C36 1.239 . S
O26 Mn22 2.221 . S
O26 Mn27 2.290 . S
O26 C37 1.278 . S
Mn27 O26 2.290 . S
Mn27 O29 2.089 . S
Mn27 O32 2.251 . S
Mn27 O33 2.087 . S
O28 Mn22 2.163 . S
O28 C38 1.244 . S
O29 Mn27 2.089 . S
O29 C36 1.256 . S
O30 Mn22 2.160 . S
O30 C39 1.239 . S
O31 Mn24 2.089 . S
O31 C39 1.256 . S
O32 Mn27 2.251 . S
O32 C37 1.241 . S
O33 Mn27 2.087 . S
O33 C38 1.256 . S
C34 O40 1.278 . S
C34 O41 1.241 . S
C35 O21 1.244 . S
C35 O23 1.256 . S
C36 O25 1.239 . S
C36 O29 1.256 . S
C37 O26 1.278 . S
C37 O32 1.241 . S
C38 O28 1.244 . S
C38 O33 1.256 . S
C39 O30 1.239 . S
C39 O31 1.256 . S
O40 Mn22 2.221 . S
O40 Mn24 2.290 . S
O40 C34 1.278 . S
O41 Mn24 2.251 . S
O41 C34 1.241 . S
C42 C43 1.264 . S
C42 C47 1.479 . S
C42 C52 1.465 . S
C43 C42 1.264 . S
C43 C45 1.339 . S
C43 H70 0.931 . S
C44 C45 1.395 . S
C44 C46 1.320 . S
C45 C43 1.339 . S
C45 C44 1.395 . S
C45 H71 0.929 . S
C46 C44 1.320 . S
C46 C47 1.405 . S
C46 H72 0.930 . S
C47 C42 1.479 . S
C47 C46 1.405 . S
C47 H73 0.931 . S
U48 O49 2.454 1_545 S
U48 O50 2.458 1_545 S
U48 C51 2.984 1_545 S
U48 C52 2.847 1_455 S
U48 C65 2.882 . S
U48 O66 2.441 . S
U48 O67 2.420 1_455 S
U48 O68 2.455 1_545 S
U48 O69 2.449 . S
O49 U48 2.454 1_565 S
O49 C51 1.353 . S
O50 U48 2.458 1_565 S
O50 C51 1.286 . S
C51 U48 2.984 1_565 S
C51 O49 1.353 . S
C51 O50 1.286 . S
C51 C53 1.363 . S
C52 C42 1.465 . S
C52 U48 2.847 1_655 S
C52 O66 1.249 1_655 S
C52 O67 1.202 . S
C53 C51 1.363 . S
C53 C55 1.408 . S
C53 C58 1.342 . S
C54 C55 1.310 . S
C54 C57 1.461 . S
C54 H74 0.932 . S
C55 C53 1.408 . S
C55 C54 1.310 . S
C55 H75 0.930 . S
C56 C57 1.474 . S
C56 C58 1.285 . S
C56 H76 0.929 . S
C57 C54 1.461 . S
C57 C56 1.474 . S
C58 C53 1.342 . S
C58 C56 1.285 . S
C58 H77 0.930 . S
C59 C62 1.424 . S
C59 C64 1.245 1_545 S
C59 C65 1.428 . S
C60 C63 1.260 . S
C60 C64 1.477 . S
C60 H78 0.932 . S
C61 C62 1.384 . S
C61 C63 1.479 1_545 S
C61 H79 0.929 1_455 S
C62 C59 1.424 . S
C62 C61 1.384 . S
C62 H80 0.928 1_455 S
C63 C60 1.260 . S
C63 C61 1.479 1_565 S
C64 C59 1.245 1_565 S
C64 C60 1.477 . S
C64 H81 0.932 . S
C65 U48 2.882 . S
C65 C59 1.428 . S
C65 O68 1.301 1_545 S
C65 O69 1.282 . S
O66 U48 2.441 . S
O66 C52 1.249 1_455 S
O67 U48 2.420 1_655 S
O67 C52 1.202 . S
O68 U48 2.455 1_565 S
O68 C65 1.301 1_565 S
O69 U48 2.449 . S
O69 C65 1.282 . S
H70 C43 0.931 . S
H71 C45 0.929 . S
H72 C46 0.930 . S
H73 C47 0.931 . S
H74 C54 0.932 . S
H75 C55 0.930 . S
H76 C56 0.929 . S
H77 C58 0.930 . S
H78 C60 0.932 . S
H79 C61 0.929 1_655 S
H80 C62 0.928 1_655 S
H81 C64 0.932 . S
C82 C83 1.264 . S
C82 C87 1.479 . S
C82 C92 1.465 . S
C83 C82 1.264 . S
C83 C85 1.339 . S
C83 H110 0.931 . S
C84 C85 1.395 . S
C84 C86 1.320 . S
C85 C83 1.339 . S
C85 C84 1.395 . S
C85 H111 0.929 . S
C86 C84 1.320 . S
C86 C87 1.405 . S
C86 H112 0.930 . S
C87 C82 1.479 . S
C87 C86 1.405 . S
C87 H113 0.931 . S
U88 O89 2.454 . S
U88 O90 2.458 . S
U88 C91 2.984 . S
U88 C92 2.847 1_445 S
U88 C105 2.882 . S
U88 O106 2.441 1_445 S
U88 O107 2.420 1_445 S
U88 O108 2.455 . S
U88 O109 2.449 1_545 S
O89 U88 2.454 . S
O89 C91 1.353 . S
O90 U88 2.458 . S
O90 C91 1.286 . S
C91 U88 2.984 . S
C91 O89 1.353 . S
C91 O90 1.286 . S
C91 C93 1.363 . S
C92 C82 1.465 . S
C92 U88 2.847 1_665 S
C92 O106 1.249 . S
C92 O107 1.202 . S
C93 C91 1.363 . S
C93 C95 1.408 . S
C93 C98 1.342 . S
C94 C95 1.310 . S
C94 C97 1.461 . S
C94 H114 0.932 . S
C95 C93 1.408 . S
C95 C94 1.310 . S
C95 H115 0.930 . S
C96 C97 1.474 . S
C96 C98 1.285 . S
C96 H116 0.929 . S
C97 C94 1.461 . S
C97 C96 1.474 . S
C98 C93 1.342 . S
C98 C96 1.285 . S
C98 H117 0.930 . S
C99 C102 1.424 1_455 S
C99 C104 1.245 . S
C99 C105 1.428 . S
C100 C103 1.260 . S
C100 C104 1.477 . S
C100 H118 0.932 . S
C101 C102 1.384 . S
C101 C103 1.479 1_655 S
C101 H119 0.929 1_545 S
C102 C99 1.424 1_655 S
C102 C101 1.384 . S
C102 H120 0.928 1_545 S
C103 C100 1.260 . S
C103 C101 1.479 1_455 S
C104 C99 1.245 . S
C104 C100 1.477 . S
C104 H121 0.932 . S
C105 U88 2.882 . S
C105 C99 1.428 . S
C105 O108 1.301 . S
C105 O109 1.282 1_545 S
O106 U88 2.441 1_665 S
O106 C92 1.249 . S
O107 U88 2.420 1_665 S
O107 C92 1.202 . S
O108 U88 2.455 . S
O108 C105 1.301 . S
O109 U88 2.449 1_565 S
O109 C105 1.282 1_565 S
H110 C83 0.931 . S
H111 C85 0.929 . S
H112 C86 0.930 . S
H113 C87 0.931 . S
H114 C94 0.932 . S
H115 C95 0.930 . S
H116 C96 0.929 . S
H117 C98 0.930 . S
H118 C100 0.932 . S
H119 C101 0.929 1_565 S
H120 C102 0.928 1_565 S
H121 C104 0.932 . S
C122 C123 1.271 . S
C122 C127 1.468 1_556 S
C122 C132 1.469 . S
C123 C122 1.271 . S
C123 C125 1.345 . S
C123 H150 0.931 . S
C124 C125 1.379 1_554 S
C124 C126 1.320 . S
C125 C123 1.345 . S
C125 C124 1.379 1_556 S
C125 H151 0.938 . S
C126 C124 1.320 . S
C126 C127 1.405 . S
C126 H152 0.930 . S
C127 C122 1.468 1_554 S
C127 C126 1.405 . S
C127 H153 0.931 . S
U128 O129 2.454 . S
U128 O130 2.458 . S
U128 C131 2.984 . S
U128 C132 2.847 . S
U128 C145 2.882 . S
U128 O146 2.441 . S
U128 O147 2.420 . S
U128 O148 2.455 . S
U128 O149 2.449 . S
O129 U128 2.454 . S
O129 C131 1.353 . S
O130 U128 2.458 . S
O130 C131 1.286 . S
C131 U128 2.984 . S
C131 O129 1.353 . S
C131 O130 1.286 . S
C131 C133 1.363 . S
C132 C122 1.469 . S
C132 U128 2.847 . S
C132 O146 1.249 . S
C132 O147 1.202 . S
C133 C131 1.363 . S
C133 C135 1.408 1_556 S
C133 C138 1.342 . S
C134 C135 1.310 . S
C134 C137 1.461 . S
C134 H154 0.932 . S
C135 C133 1.408 1_554 S
C135 C134 1.310 . S
C135 H155 0.930 . S
C136 C137 1.474 1_556 S
C136 C138 1.285 . S
C136 H156 0.929 . S
C137 C134 1.461 . S
C137 C136 1.474 1_554 S
C138 C133 1.342 . S
C138 C136 1.285 . S
C138 H157 0.930 . S
C139 C142 1.424 . S
C139 C144 1.245 . S
C139 C145 1.428 . S
C140 C143 1.260 . S
C140 C144 1.477 . S
C140 H158 0.932 . S
C141 C142 1.384 . S
C141 C143 1.479 . S
C141 H159 0.929 . S
C142 C139 1.424 . S
C142 C141 1.384 . S
C142 H160 0.928 . S
C143 C140 1.260 . S
C143 C141 1.479 . S
C144 C139 1.245 . S
C144 C140 1.477 . S
C144 H161 0.932 . S
C145 U128 2.882 . S
C145 C139 1.428 . S
C145 O148 1.301 . S
C145 O149 1.282 . S
O146 U128 2.441 . S
O146 C132 1.249 . S
O147 U128 2.420 . S
O147 C132 1.202 . S
O148 U128 2.455 . S
O148 C145 1.301 . S
O149 U128 2.449 . S
O149 C145 1.282 . S
H150 C123 0.931 . S
H151 C125 0.938 . S
H152 C126 0.930 . S
H153 C127 0.931 . S
H154 C134 0.932 . S
H155 C135 0.930 . S
H156 C136 0.929 . S
H157 C138 0.930 . S
H158 C140 0.932 . S
H159 C141 0.929 . S
H160 C142 0.928 . S
H161 C144 0.932 . S
C162 C163 1.264 . S
C162 C167 1.479 1_554 S
C162 C172 1.465 . S
C163 C162 1.264 . S
C163 C165 1.339 . S
C163 H190 0.931 . S
C164 C165 1.395 1_556 S
C164 C166 1.320 . S
C165 C163 1.339 . S
C165 C164 1.395 1_554 S
C165 H191 0.929 . S
C166 C164 1.320 . S
C166 C167 1.405 . S
C166 H192 0.930 . S
C167 C162 1.479 1_556 S
C167 C166 1.405 . S
C167 H193 0.931 . S
U168 O169 2.454 . S
U168 O170 2.458 . S
U168 C171 2.984 . S
U168 C172 2.847 . S
U168 C185 2.882 . S
U168 O186 2.441 . S
U168 O187 2.420 . S
U168 O188 2.455 . S
U168 O189 2.449 . S
O169 U168 2.454 . S
O169 C171 1.353 . S
O170 U168 2.458 . S
O170 C171 1.286 . S
C171 U168 2.984 . S
C171 O169 1.353 . S
C171 O170 1.286 . S
C171 C173 1.363 . S
C172 C162 1.465 . S
C172 U168 2.847 . S
C172 O186 1.249 . S
C172 O187 1.202 . S
C173 C171 1.363 . S
C173 C175 1.408 1_554 S
C173 C178 1.342 . S
C174 C175 1.310 . S
C174 C177 1.461 . S
C174 H194 0.932 . S
C175 C173 1.408 1_556 S
C175 C174 1.310 . S
C175 H195 0.930 . S
C176 C177 1.474 1_554 S
C176 C178 1.285 . S
C176 H196 0.929 . S
C177 C174 1.461 . S
C177 C176 1.474 1_556 S
C178 C173 1.342 . S
C178 C176 1.285 . S
C178 H197 0.930 . S
C179 C182 1.424 . S
C179 C184 1.245 . S
C179 C185 1.428 . S
C180 C183 1.260 . S
C180 C184 1.477 . S
C180 H198 0.932 . S
C181 C182 1.384 . S
C181 C183 1.479 . S
C181 H199 0.929 . S
C182 C179 1.424 . S
C182 C181 1.384 . S
C182 H200 0.928 . S
C183 C180 1.260 . S
C183 C181 1.479 . S
C184 C179 1.245 . S
C184 C180 1.477 . S
C184 H201 0.932 . S
C185 U168 2.882 . S
C185 C179 1.428 . S
C185 O188 1.301 . S
C185 O189 1.282 . S
O186 U168 2.441 . S
O186 C172 1.249 . S
O187 U168 2.420 . S
O187 C172 1.202 . S
O188 U168 2.455 . S
O188 C185 1.301 . S
O189 U168 2.449 . S
O189 C185 1.282 . S
H190 C163 0.931 . S
H191 C165 0.929 . S
H192 C166 0.930 . S
H193 C167 0.931 . S
H194 C174 0.932 . S
H195 C175 0.930 . S
H196 C176 0.929 . S
H197 C178 0.930 . S
H198 C180 0.932 . S
H199 C181 0.929 . S
H200 C182 0.928 . S
H201 C184 0.932 . S
C164 C16 2.677 1_556 S
C15 C124 2.250 . S
C13 C177 1.540 1_554 S
C14 C137 1.862 1_556 S
C37 C84 2.677 . S
C36 C44 2.250 . S
C97 C34 1.544 . S
C57 C35 1.862 . S
C17 C63 1.542 1_545 S
C18 C103 1.428 . S
C143 C38 1.542 . S
C39 C183 1.428 . S
