# Generated by pormake.
# Topology pth, (4,4)-cn, num edge types: 1
# Building blocks:
#     Node 0, Type 0, BuildingBlock: KUFVIS_clean_sbu_0, # of connection points: 4
#     Node 1, Type 0, BuildingBlock: KUFVIS_clean_sbu_0, # of connection points: 4
#     Node 2, Type 0, BuildingBlock: KUFVIS_clean_sbu_0, # of connection points: 4
#     Node 3, Type 1, BuildingBlock: NAWXER_clean_sbu_0, # of connection points: 4
#     Node 4, Type 1, BuildingBlock: NAWXER_clean_sbu_0, # of connection points: 4
#     Node 5, Type 1, BuildingBlock: NAWXER_clean_sbu_0, # of connection points: 4
#     Edge 6, Type (0, 1), None
#     Edge 7, Type (0, 1), None
#     Edge 8, Type (0, 1), None
#     Edge 9, Type (0, 1), None
#     Edge 10, Type (0, 1), None
#     Edge 11, Type (0, 1), None
#     Edge 12, Type (0, 1), None
#     Edge 13, Type (0, 1), None
#     Edge 14, Type (0, 1), None
#     Edge 15, Type (0, 1), None
#     Edge 16, Type (0, 1), None
#     Edge 17, Type (0, 1), None
# Relax obj value: 0.009
# Max RMSD: 0.080
# Mean RMSD: 0.046
data_MOF--net-pth--node1-KUFVIS_clean_sbu_0--node2-NAWXER_clean_sbu_0--edge1-none
_symmetry_space_group_name_H-M    P1
_symmetry_Int_Tables_number       1
_symmetry_cell_setting            triclinic
loop_
_symmetry_equiv_pos_as_xyz
'x, y, z'
_cell_length_a     9.6783381
_cell_length_b     10.348818
_cell_length_c     26.406726
_cell_angle_alpha  90.365758
_cell_angle_beta   92.321647
_cell_angle_gamma 124.96135
loop_
_atom_site_label
_atom_site_type_symbol
_atom_site_fract_x
_atom_site_fract_y
_atom_site_fract_z
_atom_type_partial_charge
Mn0 Mn 0.09813 0.10471 0.07452 0.0
Mn1 Mn 0.79521 0.14688 0.03011 0.0
C2 C 0.90935 0.92945 0.00716 0.0
C3 C 0.17409 0.97823 0.13372 0.0
C4 C 0.16124 0.36127 -0.00185 0.0
O5 O 0.10024 0.25218 0.12992 0.0
O6 O 0.88721 0.25406 0.09623 0.0
C7 C 0.59194 0.90885 0.10474 0.0
N8 N 0.60064 0.97956 0.06066 0.0
C9 C 0.30648 0.79182 0.03984 0.0
C10 C 0.29144 0.71669 0.08514 0.0
C11 C 0.4373 0.77127 0.11671 0.0
C12 C 0.46787 0.91363 0.02728 0.0
H13 H 0.70389 0.95406 0.12924 0.0
C14 C 0.997 0.29217 0.13141 0.0
O15 O 0.2899 0.10729 0.11281 0.0
O16 O 1.02056 0.93181 0.12277 0.0
N17 N 0.66513 0.05721 0.96805 0.0
C18 C 0.70852 0.12104 0.92226 0.0
C19 C 0.58432 0.09501 0.88578 0.0
C20 C 0.41332 0.99691 0.89678 0.0
C21 C 0.3704 0.92705 0.94405 0.0
C22 C 0.50109 0.96405 0.9789 0.0
H23 H 0.83745 0.19299 0.91594 0.0
O24 O 0.0508 0.94852 0.01841 0.0
O25 O 0.88301 1.01635 0.03563 0.0
O26 O 0.21263 0.29166 0.02536 0.0
O27 O 1.00683 0.32008 -0.00337 0.0
C28 C 0.20408 0.82814 0.95941 0.0
C29 C 0.17066 0.75023 0.00577 0.0
H30 H 0.16971 0.61612 0.09509 0.0
H31 H 0.43098 0.71182 0.15088 0.0
H32 H 0.62024 0.14963 0.8494 0.0
H33 H 0.31682 0.97561 0.86882 0.0
H34 H 0.10297 0.81486 0.93656 0.0
H35 H 0.04165 0.66392 0.01545 0.0
Mn36 Mn 0.11132 0.12288 0.38663 0.0
Mn37 Mn 0.4027 0.47626 0.44398 0.0
C38 C 0.28059 0.12779 0.45346 0.0
C39 C 0.04713 0.9262 0.32457 0.0
C40 C 1.0262 0.29904 0.4581 0.0
O41 O 0.13168 0.29056 0.33811 0.0
O42 O 0.36941 0.51036 0.37188 0.0
C43 C 0.69125 0.51996 0.39113 0.0
N44 N 0.62437 0.53379 0.4334 0.0
C45 C 0.88955 0.66154 0.48105 0.0
C46 C 0.96315 0.6499 0.43816 0.0
C47 C 0.86183 0.57321 0.3936 0.0
C48 C 0.71598 0.59098 0.47766 0.0
H49 H 0.61365 0.46577 0.3565 0.0
C50 C 0.24928 0.43957 0.33793 0.0
O51 O 0.9269 0.92989 0.34304 0.0
O52 O 0.19926 0.04458 0.3375 0.0
N53 N 0.45859 0.4807 0.51445 0.0
C54 C 0.36371 0.45699 0.55473 0.0
C55 C 0.44496 0.52632 0.60241 0.0
C56 C 0.621 0.62245 0.6081 0.0
C57 C 0.71519 0.64311 0.5665 0.0
C58 C 0.62899 0.56992 0.52018 0.0
H59 H 0.228 0.39066 0.55021 0.0
O60 O 0.13882 0.99906 0.43882 0.0
O61 O 0.31655 0.25317 0.4296 0.0
O62 O 0.98343 0.17087 0.43485 0.0
O63 O 0.17611 0.4255 0.45935 0.0
C64 C 0.89183 0.73534 0.56914 0.0
C65 C 0.97911 0.73681 0.52745 0.0
H66 H 0.09588 0.69591 0.43936 0.0
H67 H 0.91572 0.55614 0.3614 0.0
H68 H 0.37465 0.50959 0.635 0.0
H69 H 0.6824 0.67699 0.64484 0.0
H70 H 0.95948 0.80384 0.60336 0.0
H71 H 0.11385 0.79597 0.53169 0.0
Mn72 Mn 0.14532 0.11093 0.71827 0.0
Mn73 Mn 0.96053 0.26767 0.75299 0.0
C74 C 0.26289 0.26516 0.79197 0.0
C75 C 0.38345 0.18097 0.66468 0.0
C76 C 0.83157 0.96716 0.79198 0.0
O77 O 0.99902 0.07616 0.65437 0.0
O78 O 0.8283 0.10417 0.69689 0.0
C79 C 0.0845 0.43873 0.65725 0.0
N80 N 0.05694 0.43486 0.70741 0.0
C81 C 0.09126 0.68045 0.70614 0.0
C82 C 0.12492 0.69105 0.65459 0.0
C83 C 0.12486 0.57084 0.63016 0.0
C84 C 0.0771 0.55821 0.73202 0.0
H85 H 0.08291 0.34579 0.63849 0.0
C86 C 0.85669 0.05323 0.65758 0.0
O87 O 0.27184 0.04128 0.67732 0.0
O88 O 0.36042 0.28055 0.68191 0.0
N89 N 0.04868 0.42426 0.8046 0.0
C90 C 1.02384 0.39848 0.85438 0.0
C91 C 0.98284 0.48641 0.88266 0.0
C92 C 0.98374 0.60762 0.85953 0.0
C93 C 1.03853 0.64776 0.81061 0.0
C94 C 0.06371 0.54866 0.78347 0.0
H95 H 1.03379 0.30878 0.87052 0.0
O96 O 0.28705 0.15856 0.78161 0.0
O97 O 0.17179 0.28041 0.75728 0.0
O98 O 0.91588 0.94634 0.75924 0.0
O99 O 0.85845 0.10049 0.79986 0.0
C100 C 0.04479 0.76831 0.78562 0.0
C101 C 0.06252 0.77951 0.73276 0.0
H102 H 0.15852 0.79277 0.63365 0.0
H103 H 0.15422 0.57959 0.59073 0.0
H104 H 0.94841 0.46054 0.92158 0.0
H105 H 0.93373 0.66395 0.87817 0.0
H106 H 1.03152 0.84793 0.80764 0.0
H107 H 1.0364 0.85172 0.71188 0.0
C108 C 1.02483 0.79495 0.29282 0.0
C109 C 1.00922 0.40115 0.1714 0.0
O110 O 0.16106 0.81515 0.27998 0.0
Zn111 Zn 0.26013 0.729 0.23309 0.0
O112 O 0.88369 0.66771 0.27801 0.0
Zn113 Zn 0.9789 0.57542 0.23378 0.0
O114 O 0.09193 0.50114 0.28484 0.0
O115 O 0.36881 0.66836 0.28493 0.0
O116 O 0.87762 0.38999 0.18551 0.0
O117 O 0.15414 0.52295 0.18569 0.0
O118 O 0.34567 0.91466 0.18539 0.0
O119 O 0.06904 0.75495 0.18247 0.0
C120 C 0.23826 0.54008 0.3001 0.0
C121 C 0.20237 0.8802 0.16809 0.0
C122 C 0.76259 0.04752 0.61119 0.0
C123 C 0.40145 0.1173 0.48612 0.0
O124 O 0.63911 0.92234 0.58786 0.0
Zn125 Zn 0.56486 0.0345 0.54312 0.0
O126 O 0.78959 0.17917 0.60098 0.0
Zn127 Zn 0.724 0.30233 0.55905 0.0
O128 O 0.63712 0.35383 0.61836 0.0
O129 O 0.47798 0.09806 0.60101 0.0
O130 O 0.52903 0.24195 0.50705 0.0
O131 O 0.37969 0.98469 0.49359 0.0
O132 O 0.77024 0.15325 0.49845 0.0
O133 O 0.92724 0.40838 0.51676 0.0
C134 C 0.50859 0.21545 0.62727 0.0
C135 C 0.90076 0.29038 0.49103 0.0
C136 C 0.28598 0.48152 0.9625 0.0
C137 C 0.70043 0.84029 0.82428 0.0
O138 O 0.27345 0.58495 0.94115 0.0
Zn139 Zn 0.46943 0.6856 0.89395 0.0
O140 O 0.40683 0.47305 0.95056 0.0
Zn141 Zn 0.60646 0.57467 0.90123 0.0
O142 O 0.79717 0.69179 0.95463 0.0
O143 O 0.66736 0.80816 0.94904 0.0
O144 O 0.72374 0.74248 0.84433 0.0
O145 O 0.58018 0.84607 0.83982 0.0
O146 O 0.36178 0.49507 0.84326 0.0
O147 O 0.49493 0.38249 0.85531 0.0
C148 C 0.78606 0.80392 0.96882 0.0
C149 C 0.37671 0.38457 0.83242 0.0
loop_
_geom_bond_atom_site_label_1
_geom_bond_atom_site_label_2
_geom_bond_distance
_geom_bond_site_symmetry_2
_ccdc_geom_bond_type
Mn0 O5 2.095 . S
Mn0 O15 2.162 1_545 S
Mn0 O16 2.297 1_445 S
Mn0 O24 2.385 1_444 S
Mn0 O25 2.209 1_455 S
Mn0 O26 2.094 . S
Mn1 O6 2.121 1_556 S
Mn1 N8 2.257 . S
Mn1 N17 2.282 . S
Mn1 O25 2.215 1_556 S
Mn1 O27 2.117 1_655 S
C2 O24 1.234 . S
C2 O25 1.283 1_566 S
C3 O15 1.281 . S
C3 O16 1.236 1_455 S
C4 O26 1.240 1_556 S
C4 O27 1.264 . S
O5 Mn0 2.095 . S
O5 C14 1.250 . S
O6 Mn1 2.121 1_554 S
O6 C14 1.258 1_655 S
C7 N8 1.326 1_554 S
C7 C11 1.460 . S
C7 H13 0.929 . S
N8 Mn1 2.257 . S
N8 C7 1.326 1_556 S
N8 C12 1.362 . S
C9 C10 1.258 . S
C9 C12 1.431 . S
C9 C29 1.449 . S
C10 C9 1.258 . S
C10 C11 1.477 1_556 S
C10 H30 0.931 . S
C11 C7 1.460 . S
C11 C10 1.477 1_554 S
C11 H31 0.930 . S
C12 N8 1.362 . S
C12 C9 1.431 . S
C12 C22 1.476 . S
H13 C7 0.929 . S
C14 O5 1.250 . S
C14 O6 1.258 1_455 S
O15 Mn0 2.162 1_565 S
O15 C3 1.281 . S
O16 Mn0 2.297 1_665 S
O16 C3 1.236 1_655 S
N17 Mn1 2.282 . S
N17 C18 1.328 . S
N17 C22 1.318 . S
C18 N17 1.328 . S
C18 C19 1.457 . S
C18 H23 0.929 1_655 S
C19 C18 1.457 . S
C19 C20 1.291 . S
C19 H32 0.931 . S
C20 C19 1.291 . S
C20 C21 1.373 . S
C20 H33 0.929 1_545 S
C21 C20 1.373 . S
C21 C22 1.396 . S
C21 C28 1.405 1_545 S
C22 C12 1.476 . S
C22 N17 1.318 . S
C22 C21 1.396 . S
H23 C18 0.929 1_455 S
O24 Mn0 2.385 1_666 S
O24 C2 1.234 . S
O25 Mn0 2.209 1_655 S
O25 Mn1 2.215 1_554 S
O25 C2 1.283 1_544 S
O26 Mn0 2.094 . S
O26 C4 1.240 1_554 S
O27 Mn1 2.117 1_455 S
O27 C4 1.264 . S
C28 C21 1.405 1_565 S
C28 C29 1.396 1_565 S
C28 H34 0.931 . S
C29 C9 1.449 . S
C29 C28 1.396 1_545 S
C29 H35 0.930 1_545 S
H30 C10 0.931 . S
H31 C11 0.930 . S
H32 C19 0.931 . S
H33 C20 0.929 1_565 S
H34 C28 0.931 . S
H35 C29 0.930 1_565 S
Mn36 O41 2.095 . S
Mn36 O51 2.162 1_545 S
Mn36 O52 2.297 1_645 S
Mn36 O60 2.385 1_645 S
Mn36 O61 2.209 1_655 S
Mn36 O62 2.094 1_545 S
Mn37 O42 2.121 . S
Mn37 N44 2.257 . S
Mn37 N53 2.282 . S
Mn37 O61 2.215 . S
Mn37 O63 2.117 1_455 S
C38 O60 1.234 1_545 S
C38 O61 1.283 . S
C39 O51 1.281 1_455 S
C39 O52 1.236 . S
C40 O62 1.240 1_545 S
C40 O63 1.264 . S
O41 Mn36 2.095 . S
O41 C50 1.250 1_655 S
O42 Mn37 2.121 . S
O42 C50 1.258 . S
C43 N44 1.326 . S
C43 C47 1.460 . S
C43 H49 0.929 . S
N44 Mn37 2.257 . S
N44 C43 1.326 . S
N44 C48 1.362 . S
C45 C46 1.258 . S
C45 C48 1.431 . S
C45 C65 1.449 . S
C46 C45 1.258 . S
C46 C47 1.477 . S
C46 H66 0.931 . S
C47 C43 1.460 . S
C47 C46 1.477 . S
C47 H67 0.930 . S
C48 N44 1.362 . S
C48 C45 1.431 . S
C48 C58 1.476 . S
H49 C43 0.929 . S
C50 O41 1.250 1_455 S
C50 O42 1.258 . S
O51 Mn36 2.162 1_565 S
O51 C39 1.281 1_655 S
O52 Mn36 2.297 1_465 S
O52 C39 1.236 . S
N53 Mn37 2.282 . S
N53 C54 1.328 . S
N53 C58 1.318 . S
C54 N53 1.328 . S
C54 C55 1.457 . S
C54 H59 0.929 . S
C55 C54 1.457 . S
C55 C56 1.291 . S
C55 H68 0.931 . S
C56 C55 1.291 . S
C56 C57 1.373 . S
C56 H69 0.929 . S
C57 C56 1.373 . S
C57 C58 1.396 . S
C57 C64 1.403 . S
C58 C48 1.476 . S
C58 N53 1.318 . S
C58 C57 1.396 . S
H59 C54 0.929 . S
O60 Mn36 2.385 1_465 S
O60 C38 1.234 1_565 S
O61 Mn36 2.209 1_455 S
O61 Mn37 2.215 . S
O61 C38 1.283 . S
O62 Mn36 2.094 1_565 S
O62 C40 1.240 1_565 S
O63 Mn37 2.117 1_655 S
O63 C40 1.264 . S
C64 C57 1.403 . S
C64 C65 1.399 . S
C64 H70 0.929 . S
C65 C45 1.449 . S
C65 C64 1.399 . S
C65 H71 0.930 . S
H66 C46 0.931 . S
H67 C47 0.930 . S
H68 C55 0.931 . S
H69 C56 0.929 . S
H70 C64 0.929 . S
H71 C65 0.930 . S
Mn72 O77 2.095 1_455 S
Mn72 O87 2.162 1_545 S
Mn72 O88 2.297 . S
Mn72 O96 2.385 . S
Mn72 O97 2.209 . S
Mn72 O98 2.094 1_445 S
Mn73 O78 2.121 . S
Mn73 N80 2.257 . S
Mn73 N89 2.282 . S
Mn73 O97 2.215 1_655 S
Mn73 O99 2.117 . S
C74 O96 1.234 . S
C74 O97 1.283 . S
C75 O87 1.281 1_545 S
C75 O88 1.236 . S
C76 O98 1.240 . S
C76 O99 1.264 1_565 S
O77 Mn72 2.095 1_655 S
O77 C86 1.250 . S
O78 Mn73 2.121 . S
O78 C86 1.258 . S
C79 N80 1.326 . S
C79 C83 1.460 . S
C79 H85 0.929 . S
N80 Mn73 2.257 . S
N80 C79 1.326 . S
N80 C84 1.362 1_655 S
C81 C82 1.258 . S
C81 C84 1.431 . S
C81 C101 1.449 . S
C82 C81 1.258 . S
C82 C83 1.477 1_455 S
C82 H102 0.931 . S
C83 C79 1.460 . S
C83 C82 1.477 1_655 S
C83 H103 0.930 . S
C84 N80 1.362 1_455 S
C84 C81 1.431 . S
C84 C94 1.476 . S
H85 C79 0.929 . S
C86 O77 1.250 . S
C86 O78 1.258 . S
O87 Mn72 2.162 1_565 S
O87 C75 1.281 1_565 S
O88 Mn72 2.297 . S
O88 C75 1.236 . S
N89 Mn73 2.282 . S
N89 C90 1.328 1_655 S
N89 C94 1.318 1_655 S
C90 N89 1.328 1_455 S
C90 C91 1.457 . S
C90 H95 0.929 1_455 S
C91 C90 1.457 . S
C91 C92 1.291 . S
C91 H104 0.931 . S
C92 C91 1.291 . S
C92 C93 1.373 . S
C92 H105 0.929 . S
C93 C92 1.373 . S
C93 C94 1.396 . S
C93 C100 1.403 . S
C94 C84 1.476 . S
C94 N89 1.318 1_455 S
C94 C93 1.396 . S
H95 C90 0.929 1_655 S
O96 Mn72 2.385 . S
O96 C74 1.234 . S
O97 Mn72 2.209 . S
O97 Mn73 2.215 1_455 S
O97 C74 1.283 . S
O98 Mn72 2.094 1_665 S
O98 C76 1.240 . S
O99 Mn73 2.117 . S
O99 C76 1.264 1_545 S
C100 C93 1.403 . S
C100 C101 1.399 . S
C100 H106 0.929 . S
C101 C81 1.449 . S
C101 C100 1.399 . S
C101 H107 0.930 . S
H102 C82 0.931 . S
H103 C83 0.930 . S
H104 C91 0.931 . S
H105 C92 0.929 . S
H106 C100 0.929 . S
H107 C101 0.930 . S
C108 O110 1.247 . S
C108 O112 1.258 1_455 S
C109 O116 1.247 1_455 S
C109 O117 1.258 . S
O110 C108 1.247 . S
O110 Zn111 2.028 . S
Zn111 O110 2.028 . S
Zn111 O115 2.035 . S
Zn111 O117 2.035 . S
Zn111 O118 2.028 . S
O112 C108 1.258 1_655 S
O112 Zn113 2.035 . S
Zn113 O112 2.035 . S
Zn113 O114 2.028 . S
Zn113 O116 2.028 . S
Zn113 O119 2.035 . S
O114 Zn113 2.028 . S
O114 C120 1.247 1_655 S
O115 Zn111 2.035 . S
O115 C120 1.258 . S
O116 C109 1.247 1_655 S
O116 Zn113 2.028 . S
O117 C109 1.258 . S
O117 Zn111 2.035 . S
O118 Zn111 2.028 . S
O118 C121 1.247 . S
O119 Zn113 2.035 . S
O119 C121 1.258 1_655 S
C120 O114 1.247 1_455 S
C120 O115 1.258 . S
C121 O118 1.247 . S
C121 O119 1.258 1_455 S
C122 O124 1.247 1_545 S
C122 O126 1.258 . S
C123 O130 1.247 . S
C123 O131 1.258 1_545 S
O124 C122 1.247 1_565 S
O124 Zn125 2.028 . S
Zn125 O124 2.028 . S
Zn125 O129 2.035 . S
Zn125 O131 2.035 . S
Zn125 O132 2.028 . S
O126 C122 1.258 . S
O126 Zn127 2.035 . S
Zn127 O126 2.035 . S
Zn127 O128 2.028 . S
Zn127 O130 2.028 . S
Zn127 O133 2.035 . S
O128 Zn127 2.028 . S
O128 C134 1.247 . S
O129 Zn125 2.035 . S
O129 C134 1.258 1_565 S
O130 C123 1.247 . S
O130 Zn127 2.028 . S
O131 C123 1.258 1_565 S
O131 Zn125 2.035 . S
O132 Zn125 2.028 . S
O132 C135 1.247 1_565 S
O133 Zn127 2.035 . S
O133 C135 1.258 . S
C134 O128 1.247 . S
C134 O129 1.258 1_545 S
C135 O132 1.247 1_545 S
C135 O133 1.258 . S
C136 O138 1.247 . S
C136 O140 1.258 . S
C137 O144 1.247 . S
C137 O145 1.258 . S
O138 C136 1.247 . S
O138 Zn139 2.028 . S
Zn139 O138 2.028 . S
Zn139 O143 2.035 . S
Zn139 O145 2.035 . S
Zn139 O146 2.028 . S
O140 C136 1.258 . S
O140 Zn141 2.035 . S
Zn141 O140 2.035 . S
Zn141 O142 2.028 . S
Zn141 O144 2.028 . S
Zn141 O147 2.035 . S
O142 Zn141 2.028 . S
O142 C148 1.247 . S
O143 Zn139 2.035 . S
O143 C148 1.258 . S
O144 C137 1.247 . S
O144 Zn141 2.028 . S
O145 C137 1.258 . S
O145 Zn139 2.035 . S
O146 Zn139 2.028 . S
O146 C149 1.247 . S
O147 Zn141 2.035 . S
O147 C149 1.258 . S
C148 O142 1.247 . S
C148 O143 1.258 . S
C149 O146 1.247 . S
C149 O147 1.258 . S
C109 C14 1.475 . S
C40 C135 1.479 . S
C76 C137 1.452 . S
C3 C121 1.454 . S
C123 C38 1.470 . S
C74 C149 1.438 . S
C122 C86 1.408 . S
C2 C148 1.440 . S
C108 C39 1.459 . S
C134 C75 1.486 . S
C136 C4 1.456 . S
C50 C120 1.481 . S
