# Generated by pormake.
# Topology bcu-b, (8,8)-cn, num edge types: 1
# Building blocks:
#     Node 0, Type 0, BuildingBlock: VETTIZ_charged_sbu_0, # of connection points: 8
#     Node 1, Type 1, BuildingBlock: VETTIZ_charged_sbu_0, # of connection points: 8
#     Edge 2, Type (0, 1), BuildingBlock: KIFKEQ_clean_linker_1, # of connection points: 2
#     Edge 3, Type (0, 1), BuildingBlock: KIFKEQ_clean_linker_1, # of connection points: 2
#     Edge 4, Type (0, 1), BuildingBlock: KIFKEQ_clean_linker_1, # of connection points: 2
#     Edge 5, Type (0, 1), BuildingBlock: KIFKEQ_clean_linker_1, # of connection points: 2
#     Edge 6, Type (0, 1), BuildingBlock: KIFKEQ_clean_linker_1, # of connection points: 2
#     Edge 7, Type (0, 1), BuildingBlock: KIFKEQ_clean_linker_1, # of connection points: 2
#     Edge 8, Type (0, 1), BuildingBlock: KIFKEQ_clean_linker_1, # of connection points: 2
#     Edge 9, Type (0, 1), BuildingBlock: KIFKEQ_clean_linker_1, # of connection points: 2
# Relax obj value: 0.000
# Max RMSD: 0.009
# Mean RMSD: 0.009
data_MOF--net-bcu-b--node1-VETTIZ_charged_sbu_0--node2-VETTIZ_charged_sbu_0--edge1-KIFKEQ_clean_linker_1
_symmetry_space_group_name_H-M    P1
_symmetry_Int_Tables_number       1
_symmetry_cell_setting            triclinic
loop_
_symmetry_equiv_pos_as_xyz
'x, y, z'
_cell_length_a     20.524041
_cell_length_b     18.522776
_cell_length_c     20.369056
_cell_angle_alpha  87.747397
_cell_angle_beta   90.689772
_cell_angle_gamma 87.58691
loop_
_atom_site_label
_atom_site_type_symbol
_atom_site_fract_x
_atom_site_fract_y
_atom_site_fract_z
_atom_type_partial_charge
Fe0 Fe 0.95378 0.89653 0.0036 0.0
O1 O 0.95304 1.00311 1.00025 0.0
Fe2 Fe 0.00713 1.05321 0.92493 0.0
Fe3 Fe 0.983 0.05961 0.07574 0.0
O4 O 0.9558 1.00185 0.99382 0.0
O5 O 0.037 0.10985 1.00033 0.0
O6 O 0.03468 0.11081 0.00689 0.0
Fe7 Fe 0.03714 0.21622 0.99708 0.0
C8 C 0.87872 0.95068 0.12068 0.0
O9 O 0.01356 0.88354 0.0865 0.0
O10 O 0.06128 0.98855 0.09293 0.0
O11 O 0.11143 0.19646 0.93214 0.0
O12 O 0.06619 0.1159 0.86269 0.0
O13 O 0.08589 0.98097 0.93695 0.0
O14 O 0.03339 0.87822 0.94594 0.0
O15 O 0.02443 0.12557 0.14559 0.0
O16 O 0.08966 0.20085 0.08364 0.0
C17 C 0.08347 0.91296 0.93073 0.0
O18 O 0.97519 0.22966 0.91581 0.0
O19 O 0.92885 0.12365 0.90741 0.0
O20 O 0.87891 0.91648 0.06638 0.0
O21 O 0.92199 0.99693 0.13725 0.0
C22 C 0.05981 0.92118 0.10661 0.0
C23 C 0.07114 0.17082 0.13874 0.0
C24 C 0.90808 0.20061 0.0715 0.0
O25 O 0.90481 0.13286 0.06393 0.0
O26 O 0.95854 0.23486 0.05646 0.0
C27 C 0.10949 0.16235 0.87779 0.0
O28 O 0.96672 0.9872 0.85491 0.0
O29 O 0.90237 0.91076 0.91631 0.0
C30 C 0.9297 0.1913 0.89499 0.0
C31 C 0.92077 0.94115 0.86141 0.0
Fe32 Fe 0.48351 0.71496 0.54844 0.0
O33 O 0.49026 0.60913 0.54497 0.0
Fe34 Fe 0.56972 0.56333 0.49408 0.0
Fe35 Fe 0.41937 0.55138 0.50833 0.0
O36 O 0.49684 0.61013 0.54349 0.0
O37 O 0.49893 0.50449 0.45825 0.0
O38 O 0.4924 0.50328 0.46003 0.0
Fe39 Fe 0.505 0.39802 0.45692 0.0
C40 C 0.36359 0.65506 0.61224 0.0
O41 O 0.40553 0.72749 0.48252 0.0
O42 O 0.40473 0.62413 0.43039 0.0
O43 O 0.57303 0.42068 0.3866 0.0
O44 O 0.63645 0.50453 0.43558 0.0
O45 O 0.55876 0.63839 0.41657 0.0
O46 O 0.54628 0.73789 0.47367 0.0
O47 O 0.35483 0.48374 0.46135 0.0
O48 O 0.42245 0.41145 0.39881 0.0
C49 C 0.56531 0.70598 0.42277 0.0
O50 O 0.58236 0.38576 0.52326 0.0
O51 O 0.58617 0.49122 0.57188 0.0
O52 O 0.41622 0.6905 0.61856 0.0
O53 O 0.35217 0.61012 0.56606 0.0
C54 C 0.38878 0.69093 0.43376 0.0
C55 C 0.36568 0.43904 0.41434 0.0
C56 C 0.4235 0.41021 0.5826 0.0
O57 O 0.42923 0.47801 0.58645 0.0
O58 O 0.44188 0.37631 0.53249 0.0
C59 C 0.6253 0.4572 0.39128 0.0
O60 O 0.63407 0.63115 0.54096 0.0
O61 O 0.56652 0.70093 0.60582 0.0
C62 C 0.60065 0.42403 0.57017 0.0
C63 C 0.62337 0.67457 0.58899 0.0
H64 H 0.0216 0.25527 0.23368 0.0
H65 H 0.19698 0.14301 0.17114 0.0
H66 H 0.08654 0.32559 0.30848 0.0
H67 H 0.26155 0.21122 0.24642 0.0
H68 H 0.35957 0.41475 0.2851 0.0
H69 H 0.28101 0.34324 0.22924 0.0
H70 H 0.16906 0.32541 0.40694 0.0
H71 H 0.24822 0.39874 0.46318 0.0
C72 C 0.07367 0.24354 0.23835 0.0
C73 C 0.10481 0.19408 0.19731 0.0
C74 C 0.11073 0.2839 0.28064 0.0
C75 C 0.17906 0.27499 0.2818 0.0
C76 C 0.20904 0.22031 0.24523 0.0
C77 C 0.17225 0.18068 0.20285 0.0
C78 C 0.31748 0.39685 0.31188 0.0
C79 C 0.31006 0.41153 0.3784 0.0
C80 C 0.27292 0.3553 0.28021 0.0
C81 C 0.22025 0.32687 0.31452 0.0
C82 C 0.20972 0.34616 0.37972 0.0
C83 C 0.25455 0.38844 0.41161 0.0
H84 H 0.87138 0.34326 0.05965 0.0
H85 H 0.83509 0.14705 0.1723 0.0
H86 H 0.80708 0.41341 0.13692 0.0
H87 H 0.77108 0.2175 0.25004 0.0
H88 H 0.73517 0.37411 0.41583 0.0
H89 H 0.80085 0.31173 0.33374 0.0
H90 H 0.69074 0.42827 0.17851 0.0
H91 H 0.62484 0.48964 0.26078 0.0
C92 C 0.84849 0.315 0.10024 0.0
C93 C 0.85798 0.23964 0.10977 0.0
C94 C 0.81195 0.35522 0.14457 0.0
C95 C 0.78505 0.3211 0.20008 0.0
C96 C 0.79223 0.24534 0.20822 0.0
C97 C 0.82792 0.20488 0.16319 0.0
C98 C 0.72686 0.38815 0.36417 0.0
C99 C 0.67625 0.43774 0.34434 0.0
C100 C 0.76345 0.35158 0.31725 0.0
C101 C 0.75026 0.36444 0.24974 0.0
C102 C 0.7021 0.41736 0.23011 0.0
C103 C 0.66489 0.45302 0.27704 0.0
H104 H 0.76135 0.89982 0.0884 0.0
H105 H 0.87781 0.95385 0.25629 0.0
H106 H 0.68322 0.84404 0.16058 0.0
H107 H 0.79795 0.89803 0.32932 0.0
H108 H 0.60511 0.84373 0.43365 0.0
H109 H 0.67813 0.90973 0.36266 0.0
H110 H 0.68994 0.73018 0.23394 0.0
H111 H 0.61683 0.66295 0.30549 0.0
C112 C 0.77001 0.90048 0.14095 0.0
C113 C 0.82651 0.93034 0.16661 0.0
C114 C 0.72523 0.86807 0.18219 0.0
C115 C 0.7352 0.86526 0.25034 0.0
C116 C 0.78931 0.89922 0.27672 0.0
C117 C 0.83479 0.93149 0.23509 0.0
C118 C 0.62261 0.81813 0.38994 0.0
C119 C 0.60468 0.74779 0.37519 0.0
C120 C 0.66502 0.85602 0.34966 0.0
C121 C 0.68992 0.82509 0.29308 0.0
C122 C 0.67106 0.75552 0.27723 0.0
C123 C 0.62914 0.71704 0.31808 0.0
H124 H 0.07138 0.78017 0.15327 0.0
H125 H 0.16613 0.98395 0.15912 0.0
H126 H 0.15354 0.7255 0.22926 0.0
H127 H 0.24906 0.92873 0.23375 0.0
H128 H 0.33624 0.82958 0.42743 0.0
H129 H 0.2596 0.88423 0.346 0.0
H130 H 0.26689 0.68673 0.23983 0.0
H131 H 0.34239 0.6313 0.32215 0.0
C132 C 0.11001 0.8132 0.17021 0.0
C133 C 0.11178 0.88662 0.15016 0.0
C134 C 0.15745 0.78167 0.21355 0.0
C135 C 0.20796 0.82269 0.23787 0.0
C136 C 0.21036 0.89577 0.21687 0.0
C137 C 0.16291 0.92733 0.17365 0.0
C138 C 0.32189 0.79783 0.38656 0.0
C139 C 0.34548 0.72586 0.38165 0.0
C140 C 0.27809 0.82938 0.33956 0.0
C141 C 0.25682 0.78991 0.2863 0.0
C142 C 0.2814 0.71839 0.2807 0.0
C143 C 0.32512 0.68676 0.32776 0.0
H144 H 0.12189 0.77118 0.94553 0.0
H145 H 0.15532 0.9655 0.82884 0.0
H146 H 0.18513 0.69981 0.86842 0.0
H147 H 0.21839 0.89381 0.75133 0.0
H148 H 0.25188 0.73493 0.58777 0.0
H149 H 0.18673 0.79764 0.67006 0.0
H150 H 0.30051 0.6851 0.82497 0.0
H151 H 0.36573 0.62335 0.74257 0.0
C152 C 0.14407 0.79878 0.90414 0.0
C153 C 0.13396 0.87389 0.89328 0.0
C154 C 0.17991 0.75788 0.85989 0.0
C155 C 0.20551 0.7911 0.80331 0.0
C156 C 0.19808 0.8667 0.79401 0.0
C157 C 0.16302 0.90787 0.8389 0.0
C158 C 0.26101 0.72171 0.63946 0.0
C159 C 0.31258 0.67342 0.65922 0.0
C160 C 0.22476 0.75849 0.68644 0.0
C161 C 0.23934 0.74699 0.75381 0.0
C162 C 0.28819 0.69494 0.77344 0.0
C163 C 0.32499 0.65908 0.72647 0.0
H164 H 0.24063 0.15514 0.89388 0.0
H165 H 0.08746 0.22048 0.7545 0.0
H166 H 0.32102 0.21173 0.82244 0.0
H167 H 0.16765 0.27947 0.68399 0.0
H168 H 0.32102 0.46393 0.65227 0.0
H169 H 0.24542 0.39496 0.71965 0.0
H170 H 0.36115 0.1993 0.69075 0.0
H171 H 0.43593 0.26768 0.62155 0.0
C172 C 0.22461 0.18023 0.84717 0.0
C173 C 0.1583 0.18284 0.82898 0.0
C174 C 0.27038 0.21278 0.80665 0.0
C175 C 0.25018 0.25031 0.74829 0.0
C176 C 0.18413 0.25098 0.72902 0.0
C177 C 0.13856 0.21671 0.76879 0.0
C178 C 0.33094 0.40643 0.66115 0.0
C179 C 0.38449 0.37115 0.63192 0.0
C180 C 0.2873 0.36697 0.69896 0.0
C181 C 0.2973 0.29191 0.70947 0.0
C182 C 0.35239 0.2571 0.6829 0.0
C183 C 0.39517 0.29622 0.64371 0.0
H184 H 0.86411 0.12897 0.79675 0.0
H185 H 0.87885 0.33006 0.89481 0.0
H186 H 0.78324 0.18524 0.72099 0.0
H187 H 0.79427 0.38576 0.82207 0.0
H188 H 0.69548 0.4883 0.63844 0.0
H189 H 0.77275 0.43234 0.71815 0.0
H190 H 0.67864 0.22877 0.70232 0.0
H191 H 0.60443 0.28435 0.61887 0.0
C192 C 0.8491 0.18511 0.80271 0.0
C193 C 0.87806 0.22532 0.85139 0.0
C194 C 0.80212 0.21745 0.75951 0.0
C195 C 0.78155 0.2905 0.76484 0.0
C196 C 0.80961 0.33004 0.81497 0.0
C197 C 0.85787 0.29807 0.85715 0.0
C198 C 0.69128 0.43161 0.65228 0.0
C199 C 0.6442 0.39054 0.6222 0.0
C200 C 0.7354 0.3994 0.69853 0.0
C201 C 0.73262 0.32554 0.71721 0.0
C202 C 0.68384 0.28518 0.68834 0.0
C203 C 0.64077 0.31707 0.64078 0.0
H204 H 0.96961 0.85284 0.76926 0.0
H205 H 0.79642 0.97344 0.82594 0.0
H206 H 0.90388 0.78345 0.69441 0.0
H207 H 0.73107 0.90593 0.75069 0.0
H208 H 0.62992 0.70193 0.71768 0.0
H209 H 0.70948 0.77351 0.77197 0.0
H210 H 0.82144 0.78559 0.59397 0.0
H211 H 0.74112 0.71253 0.53915 0.0
C212 C 0.91797 0.86653 0.76323 0.0
C213 C 0.88752 0.91809 0.80265 0.0
C214 C 0.88047 0.82676 0.7209 0.0
C215 C 0.81241 0.83836 0.7182 0.0
C216 C 0.78335 0.89501 0.75304 0.0
C217 C 0.82058 0.93413 0.79542 0.0
C218 C 0.67213 0.71868 0.69045 0.0
C219 C 0.67923 0.7025 0.62422 0.0
C220 C 0.71728 0.7602 0.72125 0.0
C221 C 0.77029 0.78691 0.68636 0.0
C222 C 0.78047 0.76616 0.62154 0.0
C223 C 0.73498 0.72404 0.5905 0.0
loop_
_geom_bond_atom_site_label_1
_geom_bond_atom_site_label_2
_geom_bond_distance
_geom_bond_site_symmetry_2
_ccdc_geom_bond_type
Fe0 O1 1.886 . S
Fe0 O4 1.715 1_554 S
Fe0 O9 2.077 . S
Fe0 O14 1.935 1_554 S
Fe0 O20 2.077 1_455 S
Fe0 O29 1.935 1_454 S
O1 Fe0 1.886 . S
O1 Fe3 1.715 1_565 S
Fe2 O4 1.886 . S
Fe2 O5 1.715 1_565 S
Fe2 O12 1.935 1_565 S
Fe2 O13 2.077 . S
Fe2 O19 1.935 1_465 S
Fe2 O28 2.077 1_455 S
Fe3 O1 1.715 1_545 S
Fe3 O6 1.886 . S
Fe3 O10 1.935 1_545 S
Fe3 O15 2.077 . S
Fe3 O21 1.935 1_445 S
Fe3 O25 2.077 1_455 S
O4 Fe0 1.715 1_556 S
O4 Fe2 1.886 . S
O5 Fe2 1.715 1_545 S
O5 Fe7 1.886 . S
O6 Fe3 1.886 . S
O6 Fe7 1.715 1_554 S
Fe7 O5 1.886 . S
Fe7 O6 1.715 1_556 S
Fe7 O11 2.077 . S
Fe7 O16 1.935 1_556 S
Fe7 O18 2.077 1_455 S
Fe7 O26 1.935 1_456 S
C8 O20 1.381 . S
C8 O21 1.421 . S
O9 Fe0 2.077 . S
O9 C22 1.381 . S
O10 Fe3 1.935 1_565 S
O10 C22 1.421 . S
O11 Fe7 2.077 . S
O11 C27 1.381 . S
O12 Fe2 1.935 1_545 S
O12 C27 1.421 . S
O13 Fe2 2.077 . S
O13 C17 1.381 . S
O14 Fe0 1.935 1_556 S
O14 C17 1.421 . S
O15 Fe3 2.077 . S
O15 C23 1.381 . S
O16 Fe7 1.935 1_554 S
O16 C23 1.421 . S
C17 O13 1.381 . S
C17 O14 1.421 . S
O18 Fe7 2.077 1_655 S
O18 C30 1.381 . S
O19 Fe2 1.935 1_645 S
O19 C30 1.421 . S
O20 Fe0 2.077 1_655 S
O20 C8 1.381 . S
O21 Fe3 1.935 1_665 S
O21 C8 1.421 . S
C22 O9 1.381 . S
C22 O10 1.421 . S
C23 O15 1.381 . S
C23 O16 1.421 . S
C24 O25 1.381 . S
C24 O26 1.421 . S
O25 Fe3 2.077 1_655 S
O25 C24 1.381 . S
O26 Fe7 1.935 1_654 S
O26 C24 1.421 . S
C27 O11 1.381 . S
C27 O12 1.421 . S
O28 Fe2 2.077 1_655 S
O28 C31 1.381 . S
O29 Fe0 1.935 1_656 S
O29 C31 1.421 . S
C30 O18 1.381 . S
C30 O19 1.421 . S
C31 O28 1.381 . S
C31 O29 1.421 . S
Fe32 O33 1.886 . S
Fe32 O36 1.715 . S
Fe32 O41 2.077 . S
Fe32 O46 1.935 . S
Fe32 O52 2.077 . S
Fe32 O61 1.935 . S
O33 Fe32 1.886 . S
O33 Fe35 1.715 . S
Fe34 O36 1.886 . S
Fe34 O37 1.715 . S
Fe34 O44 1.935 . S
Fe34 O45 2.077 . S
Fe34 O51 1.935 . S
Fe34 O60 2.077 . S
Fe35 O33 1.715 . S
Fe35 O38 1.886 . S
Fe35 O42 1.935 . S
Fe35 O47 2.077 . S
Fe35 O53 1.935 . S
Fe35 O57 2.077 . S
O36 Fe32 1.715 . S
O36 Fe34 1.886 . S
O37 Fe34 1.715 . S
O37 Fe39 1.886 . S
O38 Fe35 1.886 . S
O38 Fe39 1.715 . S
Fe39 O37 1.886 . S
Fe39 O38 1.715 . S
Fe39 O43 2.077 . S
Fe39 O48 1.935 . S
Fe39 O50 2.077 . S
Fe39 O58 1.935 . S
C40 O52 1.381 . S
C40 O53 1.421 . S
O41 Fe32 2.077 . S
O41 C54 1.381 . S
O42 Fe35 1.935 . S
O42 C54 1.421 . S
O43 Fe39 2.077 . S
O43 C59 1.381 . S
O44 Fe34 1.935 . S
O44 C59 1.421 . S
O45 Fe34 2.077 . S
O45 C49 1.381 . S
O46 Fe32 1.935 . S
O46 C49 1.421 . S
O47 Fe35 2.077 . S
O47 C55 1.381 . S
O48 Fe39 1.935 . S
O48 C55 1.421 . S
C49 O45 1.381 . S
C49 O46 1.421 . S
O50 Fe39 2.077 . S
O50 C62 1.381 . S
O51 Fe34 1.935 . S
O51 C62 1.421 . S
O52 Fe32 2.077 . S
O52 C40 1.381 . S
O53 Fe35 1.935 . S
O53 C40 1.421 . S
C54 O41 1.381 . S
C54 O42 1.421 . S
C55 O47 1.381 . S
C55 O48 1.421 . S
C56 O57 1.381 . S
C56 O58 1.421 . S
O57 Fe35 2.077 . S
O57 C56 1.381 . S
O58 Fe39 1.935 . S
O58 C56 1.421 . S
C59 O43 1.381 . S
C59 O44 1.421 . S
O60 Fe34 2.077 . S
O60 C63 1.381 . S
O61 Fe32 1.935 . S
O61 C63 1.421 . S
C62 O50 1.381 . S
C62 O51 1.421 . S
C63 O60 1.381 . S
C63 O61 1.421 . S
H64 C72 0.950 . S
H65 C77 0.950 . S
H66 C74 0.950 . S
H67 C76 0.950 . S
H68 C78 0.950 . S
H69 C80 0.950 . S
H70 C82 0.950 . S
H71 C83 0.950 . S
C72 H64 0.950 . S
C72 C73 1.386 . S
C72 C74 1.391 . S
C73 C72 1.386 . S
C73 C77 1.393 . S
C74 H66 0.950 . S
C74 C72 1.391 . S
C74 C75 1.400 . S
C75 C74 1.400 . S
C75 C76 1.398 . S
C75 C81 1.491 . S
C76 H67 0.950 . S
C76 C75 1.398 . S
C76 C77 1.391 . S
C77 H65 0.950 . S
C77 C73 1.393 . S
C77 C76 1.391 . S
C78 H68 0.950 . S
C78 C79 1.386 . S
C78 C80 1.391 . S
C79 C78 1.386 . S
C79 C83 1.393 . S
C80 H69 0.950 . S
C80 C78 1.391 . S
C80 C81 1.400 . S
C81 C75 1.491 . S
C81 C80 1.400 . S
C81 C82 1.398 . S
C82 H70 0.950 . S
C82 C81 1.398 . S
C82 C83 1.391 . S
C83 H71 0.950 . S
C83 C79 1.393 . S
C83 C82 1.391 . S
H84 C92 0.950 . S
H85 C97 0.950 . S
H86 C94 0.950 . S
H87 C96 0.950 . S
H88 C98 0.950 . S
H89 C100 0.950 . S
H90 C102 0.950 . S
H91 C103 0.950 . S
C92 H84 0.950 . S
C92 C93 1.386 . S
C92 C94 1.391 . S
C93 C92 1.386 . S
C93 C97 1.393 . S
C94 H86 0.950 . S
C94 C92 1.391 . S
C94 C95 1.400 . S
C95 C94 1.400 . S
C95 C96 1.398 . S
C95 C101 1.491 . S
C96 H87 0.950 . S
C96 C95 1.398 . S
C96 C97 1.391 . S
C97 H85 0.950 . S
C97 C93 1.393 . S
C97 C96 1.391 . S
C98 H88 0.950 . S
C98 C99 1.386 . S
C98 C100 1.391 . S
C99 C98 1.386 . S
C99 C103 1.393 . S
C100 H89 0.950 . S
C100 C98 1.391 . S
C100 C101 1.400 . S
C101 C95 1.491 . S
C101 C100 1.400 . S
C101 C102 1.398 . S
C102 H90 0.950 . S
C102 C101 1.398 . S
C102 C103 1.391 . S
C103 H91 0.950 . S
C103 C99 1.393 . S
C103 C102 1.391 . S
H104 C112 0.950 . S
H105 C117 0.950 . S
H106 C114 0.950 . S
H107 C116 0.950 . S
H108 C118 0.950 . S
H109 C120 0.950 . S
H110 C122 0.950 . S
H111 C123 0.950 . S
C112 H104 0.950 . S
C112 C113 1.386 . S
C112 C114 1.391 . S
C113 C112 1.386 . S
C113 C117 1.393 . S
C114 H106 0.950 . S
C114 C112 1.391 . S
C114 C115 1.400 . S
C115 C114 1.400 . S
C115 C116 1.398 . S
C115 C121 1.491 . S
C116 H107 0.950 . S
C116 C115 1.398 . S
C116 C117 1.391 . S
C117 H105 0.950 . S
C117 C113 1.393 . S
C117 C116 1.391 . S
C118 H108 0.950 . S
C118 C119 1.386 . S
C118 C120 1.391 . S
C119 C118 1.386 . S
C119 C123 1.393 . S
C120 H109 0.950 . S
C120 C118 1.391 . S
C120 C121 1.400 . S
C121 C115 1.491 . S
C121 C120 1.400 . S
C121 C122 1.398 . S
C122 H110 0.950 . S
C122 C121 1.398 . S
C122 C123 1.391 . S
C123 H111 0.950 . S
C123 C119 1.393 . S
C123 C122 1.391 . S
H124 C132 0.950 . S
H125 C137 0.950 . S
H126 C134 0.950 . S
H127 C136 0.950 . S
H128 C138 0.950 . S
H129 C140 0.950 . S
H130 C142 0.950 . S
H131 C143 0.950 . S
C132 H124 0.950 . S
C132 C133 1.386 . S
C132 C134 1.391 . S
C133 C132 1.386 . S
C133 C137 1.393 . S
C134 H126 0.950 . S
C134 C132 1.391 . S
C134 C135 1.400 . S
C135 C134 1.400 . S
C135 C136 1.398 . S
C135 C141 1.491 . S
C136 H127 0.950 . S
C136 C135 1.398 . S
C136 C137 1.391 . S
C137 H125 0.950 . S
C137 C133 1.393 . S
C137 C136 1.391 . S
C138 H128 0.950 . S
C138 C139 1.386 . S
C138 C140 1.391 . S
C139 C138 1.386 . S
C139 C143 1.393 . S
C140 H129 0.950 . S
C140 C138 1.391 . S
C140 C141 1.400 . S
C141 C135 1.491 . S
C141 C140 1.400 . S
C141 C142 1.398 . S
C142 H130 0.950 . S
C142 C141 1.398 . S
C142 C143 1.391 . S
C143 H131 0.950 . S
C143 C139 1.393 . S
C143 C142 1.391 . S
H144 C152 0.950 . S
H145 C157 0.950 . S
H146 C154 0.950 . S
H147 C156 0.950 . S
H148 C158 0.950 . S
H149 C160 0.950 . S
H150 C162 0.950 . S
H151 C163 0.950 . S
C152 H144 0.950 . S
C152 C153 1.386 . S
C152 C154 1.391 . S
C153 C152 1.386 . S
C153 C157 1.393 . S
C154 H146 0.950 . S
C154 C152 1.391 . S
C154 C155 1.400 . S
C155 C154 1.400 . S
C155 C156 1.398 . S
C155 C161 1.491 . S
C156 H147 0.950 . S
C156 C155 1.398 . S
C156 C157 1.391 . S
C157 H145 0.950 . S
C157 C153 1.393 . S
C157 C156 1.391 . S
C158 H148 0.950 . S
C158 C159 1.386 . S
C158 C160 1.391 . S
C159 C158 1.386 . S
C159 C163 1.393 . S
C160 H149 0.950 . S
C160 C158 1.391 . S
C160 C161 1.400 . S
C161 C155 1.491 . S
C161 C160 1.400 . S
C161 C162 1.398 . S
C162 H150 0.950 . S
C162 C161 1.398 . S
C162 C163 1.391 . S
C163 H151 0.950 . S
C163 C159 1.393 . S
C163 C162 1.391 . S
H164 C172 0.950 . S
H165 C177 0.950 . S
H166 C174 0.950 . S
H167 C176 0.950 . S
H168 C178 0.950 . S
H169 C180 0.950 . S
H170 C182 0.950 . S
H171 C183 0.950 . S
C172 H164 0.950 . S
C172 C173 1.386 . S
C172 C174 1.391 . S
C173 C172 1.386 . S
C173 C177 1.393 . S
C174 H166 0.950 . S
C174 C172 1.391 . S
C174 C175 1.400 . S
C175 C174 1.400 . S
C175 C176 1.398 . S
C175 C181 1.491 . S
C176 H167 0.950 . S
C176 C175 1.398 . S
C176 C177 1.391 . S
C177 H165 0.950 . S
C177 C173 1.393 . S
C177 C176 1.391 . S
C178 H168 0.950 . S
C178 C179 1.386 . S
C178 C180 1.391 . S
C179 C178 1.386 . S
C179 C183 1.393 . S
C180 H169 0.950 . S
C180 C178 1.391 . S
C180 C181 1.400 . S
C181 C175 1.491 . S
C181 C180 1.400 . S
C181 C182 1.398 . S
C182 H170 0.950 . S
C182 C181 1.398 . S
C182 C183 1.391 . S
C183 H171 0.950 . S
C183 C179 1.393 . S
C183 C182 1.391 . S
H184 C192 0.950 . S
H185 C197 0.950 . S
H186 C194 0.950 . S
H187 C196 0.950 . S
H188 C198 0.950 . S
H189 C200 0.950 . S
H190 C202 0.950 . S
H191 C203 0.950 . S
C192 H184 0.950 . S
C192 C193 1.386 . S
C192 C194 1.391 . S
C193 C192 1.386 . S
C193 C197 1.393 . S
C194 H186 0.950 . S
C194 C192 1.391 . S
C194 C195 1.400 . S
C195 C194 1.400 . S
C195 C196 1.398 . S
C195 C201 1.491 . S
C196 H187 0.950 . S
C196 C195 1.398 . S
C196 C197 1.391 . S
C197 H185 0.950 . S
C197 C193 1.393 . S
C197 C196 1.391 . S
C198 H188 0.950 . S
C198 C199 1.386 . S
C198 C200 1.391 . S
C199 C198 1.386 . S
C199 C203 1.393 . S
C200 H189 0.950 . S
C200 C198 1.391 . S
C200 C201 1.400 . S
C201 C195 1.491 . S
C201 C200 1.400 . S
C201 C202 1.398 . S
C202 H190 0.950 . S
C202 C201 1.398 . S
C202 C203 1.391 . S
C203 H191 0.950 . S
C203 C199 1.393 . S
C203 C202 1.391 . S
H204 C212 0.950 . S
H205 C217 0.950 . S
H206 C214 0.950 . S
H207 C216 0.950 . S
H208 C218 0.950 . S
H209 C220 0.950 . S
H210 C222 0.950 . S
H211 C223 0.950 . S
C212 H204 0.950 . S
C212 C213 1.386 . S
C212 C214 1.391 . S
C213 C212 1.386 . S
C213 C217 1.393 . S
C214 H206 0.950 . S
C214 C212 1.391 . S
C214 C215 1.400 . S
C215 C214 1.400 . S
C215 C216 1.398 . S
C215 C221 1.491 . S
C216 H207 0.950 . S
C216 C215 1.398 . S
C216 C217 1.391 . S
C217 H205 0.950 . S
C217 C213 1.393 . S
C217 C216 1.391 . S
C218 H208 0.950 . S
C218 C219 1.386 . S
C218 C220 1.391 . S
C219 C218 1.386 . S
C219 C223 1.393 . S
C220 H209 0.950 . S
C220 C218 1.391 . S
C220 C221 1.400 . S
C221 C215 1.491 . S
C221 C220 1.400 . S
C221 C222 1.398 . S
C222 H210 0.950 . S
C222 C221 1.398 . S
C222 C223 1.391 . S
C223 H211 0.950 . S
C223 C219 1.393 . S
C223 C222 1.391 . S
C73 C23 1.451 . S
C79 C55 1.460 . S
C93 C24 1.456 . S
C99 C59 1.457 . S
C113 C8 1.442 . S
C119 C49 1.449 . S
C133 C22 1.456 . S
C139 C54 1.439 . S
C153 C17 1.439 . S
C159 C40 1.455 . S
C179 C56 1.463 . S
C173 C27 1.443 . S
C193 C30 1.461 . S
C199 C62 1.440 . S
C219 C63 1.442 . S
C213 C31 1.446 . S
