# Generated by pormake.
# Topology bcu-b, (8,8)-cn, num edge types: 1
# Building blocks:
#     Node 0, Type 0, BuildingBlock: VETTIZ_charged_sbu_0, # of connection points: 8
#     Node 1, Type 1, BuildingBlock: VETTIZ_charged_sbu_0, # of connection points: 8
#     Edge 2, Type (0, 1), BuildingBlock: XIVTED_clean_linker_0, # of connection points: 2
#     Edge 3, Type (0, 1), BuildingBlock: XIVTED_clean_linker_0, # of connection points: 2
#     Edge 4, Type (0, 1), BuildingBlock: XIVTED_clean_linker_0, # of connection points: 2
#     Edge 5, Type (0, 1), BuildingBlock: XIVTED_clean_linker_0, # of connection points: 2
#     Edge 6, Type (0, 1), BuildingBlock: XIVTED_clean_linker_0, # of connection points: 2
#     Edge 7, Type (0, 1), BuildingBlock: XIVTED_clean_linker_0, # of connection points: 2
#     Edge 8, Type (0, 1), BuildingBlock: XIVTED_clean_linker_0, # of connection points: 2
#     Edge 9, Type (0, 1), BuildingBlock: XIVTED_clean_linker_0, # of connection points: 2
# Relax obj value: 0.000
# Max RMSD: 0.009
# Mean RMSD: 0.009
data_MOF--net-bcu-b--node1-VETTIZ_charged_sbu_0--node2-VETTIZ_charged_sbu_0--edge1-XIVTED_clean_linker_0
_symmetry_space_group_name_H-M    P1
_symmetry_Int_Tables_number       1
_symmetry_cell_setting            triclinic
loop_
_symmetry_equiv_pos_as_xyz
'x, y, z'
_cell_length_a     18.084232
_cell_length_b     21.329741
_cell_length_c     19.509112
_cell_angle_alpha  90.004908
_cell_angle_beta   87.892278
_cell_angle_gamma 89.961114
loop_
_atom_site_label
_atom_site_type_symbol
_atom_site_fract_x
_atom_site_fract_y
_atom_site_fract_z
_atom_type_partial_charge
Fe0 Fe 1.0552 0.90568 0.01632 0.0
O1 O 0.09706 0.97547 0.07111 0.0
Fe2 Fe 1.02091 -0.0196 0.86146 0.0
Fe3 Fe 0.08955 -0.02036 0.17155 0.0
O4 O 1.01336 0.97576 0.96188 0.0
O5 O 1.01345 -0.01773 0.96186 0.0
O6 O 0.09707 -0.01799 0.07113 0.0
Fe7 Fe 1.05513 0.05198 0.01676 0.0
C8 C 0.95452 0.89971 0.14195 0.0
O9 O 0.10741 0.84152 0.08187 0.0
O10 O 0.16217 0.90494 0.1616 0.0
O11 O 0.15016 0.05511 0.95597 0.0
O12 O 0.10122 0.05041 0.85315 0.0
O13 O 0.10368 0.91506 0.85206 0.0
O14 O 0.15042 0.90395 0.95571 0.0
O15 O 0.16488 0.05041 0.15902 0.0
O16 O 0.10757 0.11531 0.08213 0.0
C17 C 0.15588 0.89986 0.89071 0.0
O18 O 1.00242 0.11561 0.95193 0.0
O19 O 0.94541 0.05114 0.87442 0.0
O20 O 0.95995 0.90377 0.07695 0.0
O21 O 1.00692 0.91434 0.18057 0.0
C22 C 0.15461 0.8519 0.12977 0.0
C23 C 0.15697 0.10336 0.12747 0.0
C24 C 0.95737 0.06628 0.14138 0.0
O25 O 1.00909 0.04959 0.18029 0.0
O26 O 0.96008 0.05445 0.07752 0.0
C27 C 0.1528 0.06716 0.89216 0.0
O28 O 0.9484 0.90566 0.87091 0.0
O29 O 1.00308 0.84186 0.95038 0.0
C30 C 0.9531 0.10386 0.90648 0.0
C31 C 0.956 0.85246 0.90242 0.0
Fe32 Fe 0.5554 0.54953 0.51585 0.0
O33 O 0.49012 0.47696 0.54041 0.0
Fe34 Fe 0.72696 0.47314 0.4871 0.0
Fe35 Fe 0.38329 0.47447 0.54556 0.0
O36 O 0.6202 0.47626 0.49249 0.0
O37 O 0.62398 0.46681 0.51908 0.0
O38 O 0.48628 0.46728 0.514 0.0
Fe39 Fe 0.55482 0.39376 0.51693 0.0
C40 C 0.43046 0.60588 0.59939 0.0
O41 O 0.4957 0.55331 0.42488 0.0
O42 O 0.37635 0.53166 0.46009 0.0
O43 O 0.58815 0.38713 0.41189 0.0
O44 O 0.71073 0.41395 0.40562 0.0
O45 O 0.71517 0.55167 0.42593 0.0
O46 O 0.6276 0.61498 0.47536 0.0
O47 O 0.37419 0.39548 0.48594 0.0
O48 O 0.47249 0.32982 0.49836 0.0
C49 C 0.68045 0.60415 0.43135 0.0
O50 O 0.63666 0.32942 0.5362 0.0
O51 O 0.73579 0.39446 0.54721 0.0
O52 O 0.48347 0.61577 0.55527 0.0
O53 O 0.39552 0.55359 0.60586 0.0
C54 C 0.4249 0.55376 0.41625 0.0
C55 C 0.40784 0.34284 0.47641 0.0
C56 C 0.45563 0.38743 0.65109 0.0
O57 O 0.39891 0.41576 0.62765 0.0
O58 O 0.52134 0.38832 0.62198 0.0
C59 C 0.65374 0.38582 0.38256 0.0
O60 O 0.7344 0.53103 0.572 0.0
O61 O 0.61522 0.55416 0.60672 0.0
C62 C 0.70184 0.34205 0.5571 0.0
C63 C 0.68601 0.55407 0.61545 0.0
H64 H 0.10911 0.21529 0.17807 0.0
H65 H 0.47671 0.25909 0.3886 0.0
H66 H 0.30471 0.10274 0.1422 0.0
H67 H 0.26218 0.3338 0.44938 0.0
H68 H 0.42165 0.21087 0.28849 0.0
H69 H 0.17523 0.27674 0.26233 0.0
C70 C 0.16701 0.20546 0.18583 0.0
C71 C 0.20181 0.15414 0.15391 0.0
C72 C 0.38671 0.23747 0.32417 0.0
C73 C 0.27635 0.22161 0.25147 0.0
C74 C 0.4178 0.26396 0.38187 0.0
C75 C 0.37388 0.30042 0.42724 0.0
C76 C 0.31156 0.24793 0.31204 0.0
C77 C 0.2981 0.30629 0.41541 0.0
C78 C 0.20427 0.2395 0.23484 0.0
C79 C 0.27635 0.14214 0.16638 0.0
N80 N 0.26949 0.2808 0.35867 0.0
N81 N 0.31101 0.17501 0.2152 0.0
H82 H 0.89263 0.06526 0.27082 0.0
H83 H 0.73054 0.40185 0.26033 0.0
H84 H 0.88567 0.16116 0.07657 0.0
H85 H 0.62311 0.26144 0.38747 0.0
H86 H 0.79237 0.31824 0.19306 0.0
H87 H 0.80049 0.13958 0.3188 0.0
C88 C 0.87126 0.1016 0.23818 0.0
C89 C 0.89684 0.10699 0.16964 0.0
C90 C 0.75361 0.30573 0.23445 0.0
C91 C 0.7928 0.19284 0.22453 0.0
C92 C 0.7178 0.35336 0.27235 0.0
C93 C 0.67048 0.33851 0.32866 0.0
C94 C 0.74443 0.24295 0.25482 0.0
C95 C 0.65776 0.27487 0.34345 0.0
C96 C 0.81847 0.14373 0.26543 0.0
C97 C 0.86717 0.15505 0.12957 0.0
N98 N 0.69595 0.22948 0.30795 0.0
N99 N 0.81784 0.19682 0.15792 0.0
H100 H 0.89146 0.92572 0.26701 0.0
H101 H 0.7323 0.58832 0.30033 0.0
H102 H 0.87103 0.80466 0.0916 0.0
H103 H 0.67424 0.73166 0.4489 0.0
H104 H 0.77572 0.66917 0.22041 0.0
H105 H 0.80272 0.86027 0.33154 0.0
C106 C 0.86695 0.88597 0.24176 0.0
C107 C 0.88929 0.86964 0.17453 0.0
C108 C 0.75256 0.68315 0.27007 0.0
C109 C 0.78924 0.7942 0.24809 0.0
C110 C 0.72855 0.637 0.31598 0.0
C111 C 0.70124 0.65348 0.38171 0.0
C112 C 0.75081 0.74616 0.29059 0.0
C113 C 0.69581 0.71715 0.39887 0.0
C114 C 0.81622 0.84879 0.27846 0.0
C115 C 0.85547 0.81841 0.14359 0.0
N116 N 0.72187 0.76132 0.35397 0.0
N117 N 0.80828 0.78146 0.18127 0.0
H118 H 0.12286 0.72561 0.13712 0.0
H119 H 0.49091 0.64732 0.33891 0.0
H120 H 0.29427 0.86001 0.17639 0.0
H121 H 0.2918 0.53616 0.3564 0.0
H122 H 0.43189 0.71345 0.2539 0.0
H123 H 0.19655 0.6443 0.19264 0.0
C124 C 0.17652 0.73771 0.15615 0.0
C125 C 0.20206 0.79979 0.15289 0.0
C126 C 0.40158 0.67397 0.27562 0.0
C127 C 0.28655 0.70733 0.21602 0.0
C128 C 0.43546 0.6359 0.32381 0.0
C129 C 0.39598 0.5865 0.35553 0.0
C130 C 0.32798 0.66224 0.25846 0.0
C131 C 0.324 0.57425 0.334 0.0
C132 C 0.21834 0.69146 0.18815 0.0
C133 C 0.27194 0.81293 0.17868 0.0
N134 N 0.29215 0.61209 0.28729 0.0
N135 N 0.31146 0.76731 0.20936 0.0
H136 H 0.24084 0.80666 0.94318 0.0
H137 H 0.43783 0.7329 0.57875 0.0
H138 H 0.21733 0.92275 0.76412 0.0
H139 H 0.37765 0.59301 0.73057 0.0
H140 H 0.39298 0.81473 0.65867 0.0
H141 H 0.32974 0.74115 0.87776 0.0
C142 C 0.25595 0.81928 0.89072 0.0
C143 C 0.22088 0.86914 0.85829 0.0
C144 C 0.39068 0.76609 0.67455 0.0
C145 C 0.32163 0.79497 0.78378 0.0
C146 C 0.41601 0.71958 0.62912 0.0
C147 C 0.40966 0.65629 0.64774 0.0
C148 C 0.36031 0.7489 0.73913 0.0
C149 C 0.38173 0.64129 0.71371 0.0
C150 C 0.30618 0.78179 0.8534 0.0
C151 C 0.24225 0.88373 0.79032 0.0
N152 N 0.35769 0.68728 0.75696 0.0
N153 N 0.29072 0.84628 0.7549 0.0
H154 H 0.21831 0.06604 0.76305 0.0
H155 H 0.37692 0.40373 0.77235 0.0
H156 H 0.22297 0.16288 0.95689 0.0
H157 H 0.48721 0.26312 0.64736 0.0
H158 H 0.3151 0.32019 0.83963 0.0
H159 H 0.3099 0.14079 0.71518 0.0
C160 C 0.23907 0.10268 0.79564 0.0
C161 C 0.21304 0.10818 0.86404 0.0
C162 C 0.35445 0.30765 0.79872 0.0
C163 C 0.31641 0.19454 0.80923 0.0
C164 C 0.39024 0.35525 0.7608 0.0
C165 C 0.43839 0.34031 0.70509 0.0
C166 C 0.36451 0.24479 0.77894 0.0
C167 C 0.45188 0.27664 0.6909 0.0
C168 C 0.29154 0.14507 0.76844 0.0
C169 C 0.24188 0.15666 0.90401 0.0
N170 N 0.41372 0.23126 0.72639 0.0
N171 N 0.2909 0.19866 0.8757 0.0
H172 H 0.80444 0.10654 0.89936 0.0
H173 H 0.84862 0.32656 0.57407 0.0
H174 H 1.00196 0.21179 0.84785 0.0
H175 H 0.63467 0.264 0.65184 0.0
H176 H 0.90545 0.2795 0.67274 0.0
H177 H 0.73798 0.16606 0.81393 0.0
C178 C 0.83274 0.14424 0.87194 0.0
C179 C 0.90838 0.15475 0.88024 0.0
C180 C 0.84611 0.27575 0.66824 0.0
C181 C 0.83448 0.22023 0.78063 0.0
C182 C 0.8138 0.3017 0.61138 0.0
C183 C 0.73688 0.29914 0.60496 0.0
C184 C 0.80129 0.24672 0.71904 0.0
C185 C 0.69428 0.26637 0.65459 0.0
C186 C 0.79525 0.17742 0.82257 0.0
C187 C 0.94338 0.20301 0.84315 0.0
N188 N 0.72712 0.24165 0.71005 0.0
N189 N 0.90645 0.23319 0.79362 0.0
H190 H 0.98799 0.72618 0.8946 0.0
H191 H 0.6203 0.64824 0.69224 0.0
H192 H 0.81659 0.86076 0.85521 0.0
H193 H 0.8193 0.53665 0.67518 0.0
H194 H 0.67939 0.71454 0.77698 0.0
H195 H 0.9146 0.64505 0.83859 0.0
C196 C 0.93439 0.73836 0.87543 0.0
C197 C 0.90875 0.80044 0.87884 0.0
C198 C 0.70967 0.67495 0.75539 0.0
C199 C 0.82461 0.70816 0.81515 0.0
C200 C 0.67575 0.63678 0.70735 0.0
C201 C 0.71514 0.58717 0.67585 0.0
C202 C 0.78324 0.66312 0.77265 0.0
C203 C 0.78714 0.57488 0.6974 0.0
C204 C 0.89276 0.69221 0.84315 0.0
C205 C 0.83898 0.81368 0.85283 0.0
N206 N 0.81902 0.61282 0.74399 0.0
N207 N 0.79962 0.76814 0.8219 0.0
loop_
_geom_bond_atom_site_label_1
_geom_bond_atom_site_label_2
_geom_bond_distance
_geom_bond_site_symmetry_2
_ccdc_geom_bond_type
Fe0 O1 1.886 . S
Fe0 O4 1.715 1_554 S
Fe0 O9 2.077 . S
Fe0 O14 1.935 1_554 S
Fe0 O20 2.077 1_455 S
Fe0 O29 1.935 1_454 S
O1 Fe0 1.886 . S
O1 Fe3 1.715 1_565 S
Fe2 O4 1.886 . S
Fe2 O5 1.715 1_565 S
Fe2 O12 1.935 1_565 S
Fe2 O13 2.077 . S
Fe2 O19 1.935 1_465 S
Fe2 O28 2.077 1_455 S
Fe3 O1 1.715 1_545 S
Fe3 O6 1.886 . S
Fe3 O10 1.935 1_545 S
Fe3 O15 2.077 . S
Fe3 O21 1.935 1_445 S
Fe3 O25 2.077 1_455 S
O4 Fe0 1.715 1_556 S
O4 Fe2 1.886 . S
O5 Fe2 1.715 1_545 S
O5 Fe7 1.886 . S
O6 Fe3 1.886 . S
O6 Fe7 1.715 1_554 S
Fe7 O5 1.886 . S
Fe7 O6 1.715 1_556 S
Fe7 O11 2.077 . S
Fe7 O16 1.935 1_556 S
Fe7 O18 2.077 1_455 S
Fe7 O26 1.935 1_456 S
C8 O20 1.381 . S
C8 O21 1.421 . S
O9 Fe0 2.077 . S
O9 C22 1.381 . S
O10 Fe3 1.935 1_565 S
O10 C22 1.421 . S
O11 Fe7 2.077 . S
O11 C27 1.381 . S
O12 Fe2 1.935 1_545 S
O12 C27 1.421 . S
O13 Fe2 2.077 . S
O13 C17 1.381 . S
O14 Fe0 1.935 1_556 S
O14 C17 1.421 . S
O15 Fe3 2.077 . S
O15 C23 1.381 . S
O16 Fe7 1.935 1_554 S
O16 C23 1.421 . S
C17 O13 1.381 . S
C17 O14 1.421 . S
O18 Fe7 2.077 1_655 S
O18 C30 1.381 . S
O19 Fe2 1.935 1_645 S
O19 C30 1.421 . S
O20 Fe0 2.077 1_655 S
O20 C8 1.381 . S
O21 Fe3 1.935 1_665 S
O21 C8 1.421 . S
C22 O9 1.381 . S
C22 O10 1.421 . S
C23 O15 1.381 . S
C23 O16 1.421 . S
C24 O25 1.381 . S
C24 O26 1.421 . S
O25 Fe3 2.077 1_655 S
O25 C24 1.381 . S
O26 Fe7 1.935 1_654 S
O26 C24 1.421 . S
C27 O11 1.381 . S
C27 O12 1.421 . S
O28 Fe2 2.077 1_655 S
O28 C31 1.381 . S
O29 Fe0 1.935 1_656 S
O29 C31 1.421 . S
C30 O18 1.381 . S
C30 O19 1.421 . S
C31 O28 1.381 . S
C31 O29 1.421 . S
Fe32 O33 1.886 . S
Fe32 O36 1.715 . S
Fe32 O41 2.077 . S
Fe32 O46 1.935 . S
Fe32 O52 2.077 . S
Fe32 O61 1.935 . S
O33 Fe32 1.886 . S
O33 Fe35 1.715 . S
Fe34 O36 1.886 . S
Fe34 O37 1.715 . S
Fe34 O44 1.935 . S
Fe34 O45 2.077 . S
Fe34 O51 1.935 . S
Fe34 O60 2.077 . S
Fe35 O33 1.715 . S
Fe35 O38 1.886 . S
Fe35 O42 1.935 . S
Fe35 O47 2.077 . S
Fe35 O53 1.935 . S
Fe35 O57 2.077 . S
O36 Fe32 1.715 . S
O36 Fe34 1.886 . S
O37 Fe34 1.715 . S
O37 Fe39 1.886 . S
O38 Fe35 1.886 . S
O38 Fe39 1.715 . S
Fe39 O37 1.886 . S
Fe39 O38 1.715 . S
Fe39 O43 2.077 . S
Fe39 O48 1.935 . S
Fe39 O50 2.077 . S
Fe39 O58 1.935 . S
C40 O52 1.381 . S
C40 O53 1.421 . S
O41 Fe32 2.077 . S
O41 C54 1.381 . S
O42 Fe35 1.935 . S
O42 C54 1.421 . S
O43 Fe39 2.077 . S
O43 C59 1.381 . S
O44 Fe34 1.935 . S
O44 C59 1.421 . S
O45 Fe34 2.077 . S
O45 C49 1.381 . S
O46 Fe32 1.935 . S
O46 C49 1.421 . S
O47 Fe35 2.077 . S
O47 C55 1.381 . S
O48 Fe39 1.935 . S
O48 C55 1.421 . S
C49 O45 1.381 . S
C49 O46 1.421 . S
O50 Fe39 2.077 . S
O50 C62 1.381 . S
O51 Fe34 1.935 . S
O51 C62 1.421 . S
O52 Fe32 2.077 . S
O52 C40 1.381 . S
O53 Fe35 1.935 . S
O53 C40 1.421 . S
C54 O41 1.381 . S
C54 O42 1.421 . S
C55 O47 1.381 . S
C55 O48 1.421 . S
C56 O57 1.381 . S
C56 O58 1.421 . S
O57 Fe35 2.077 . S
O57 C56 1.381 . S
O58 Fe39 1.935 . S
O58 C56 1.421 . S
C59 O43 1.381 . S
C59 O44 1.421 . S
O60 Fe34 2.077 . S
O60 C63 1.381 . S
O61 Fe32 1.935 . S
O61 C63 1.421 . S
C62 O50 1.381 . S
C62 O51 1.421 . S
C63 O60 1.381 . S
C63 O61 1.421 . S
H64 C70 0.930 . S
H65 C74 0.930 . S
H66 C79 0.929 . S
H67 C77 0.929 . S
H68 C72 0.929 . S
H69 C78 0.929 . S
C70 H64 0.930 . S
C70 C71 1.367 . S
C70 C78 1.378 . S
C71 C70 1.367 . S
C71 C79 1.433 . S
C72 H68 0.929 . S
C72 C74 1.378 . S
C72 C76 1.350 . S
C73 C76 1.463 . S
C73 C78 1.350 . S
C73 N81 1.427 . S
C74 H65 0.930 . S
C74 C72 1.378 . S
C74 C75 1.367 . S
C75 C74 1.367 . S
C75 C77 1.433 . S
C76 C72 1.350 . S
C76 C73 1.463 . S
C76 N80 1.427 . S
C77 H67 0.929 . S
C77 C75 1.433 . S
C77 N80 1.384 . S
C78 H69 0.929 . S
C78 C70 1.378 . S
C78 C73 1.350 . S
C79 H66 0.929 . S
C79 C71 1.433 . S
C79 N81 1.384 . S
N80 C76 1.427 . S
N80 C77 1.384 . S
N81 C73 1.427 . S
N81 C79 1.384 . S
H82 C88 0.930 . S
H83 C92 0.930 . S
H84 C97 0.929 . S
H85 C95 0.929 . S
H86 C90 0.929 . S
H87 C96 0.929 . S
C88 H82 0.930 . S
C88 C89 1.367 . S
C88 C96 1.378 . S
C89 C88 1.367 . S
C89 C97 1.433 . S
C90 H86 0.929 . S
C90 C92 1.378 . S
C90 C94 1.350 . S
C91 C94 1.463 . S
C91 C96 1.350 . S
C91 N99 1.427 . S
C92 H83 0.930 . S
C92 C90 1.378 . S
C92 C93 1.367 . S
C93 C92 1.367 . S
C93 C95 1.433 . S
C94 C90 1.350 . S
C94 C91 1.463 . S
C94 N98 1.427 . S
C95 H85 0.929 . S
C95 C93 1.433 . S
C95 N98 1.384 . S
C96 H87 0.929 . S
C96 C88 1.378 . S
C96 C91 1.350 . S
C97 H84 0.929 . S
C97 C89 1.433 . S
C97 N99 1.384 . S
N98 C94 1.427 . S
N98 C95 1.384 . S
N99 C91 1.427 . S
N99 C97 1.384 . S
H100 C106 0.930 . S
H101 C110 0.930 . S
H102 C115 0.929 . S
H103 C113 0.929 . S
H104 C108 0.929 . S
H105 C114 0.929 . S
C106 H100 0.930 . S
C106 C107 1.367 . S
C106 C114 1.378 . S
C107 C106 1.367 . S
C107 C115 1.433 . S
C108 H104 0.929 . S
C108 C110 1.378 . S
C108 C112 1.350 . S
C109 C112 1.463 . S
C109 C114 1.350 . S
C109 N117 1.427 . S
C110 H101 0.930 . S
C110 C108 1.378 . S
C110 C111 1.367 . S
C111 C110 1.367 . S
C111 C113 1.433 . S
C112 C108 1.350 . S
C112 C109 1.463 . S
C112 N116 1.427 . S
C113 H103 0.929 . S
C113 C111 1.433 . S
C113 N116 1.384 . S
C114 H105 0.929 . S
C114 C106 1.378 . S
C114 C109 1.350 . S
C115 H102 0.929 . S
C115 C107 1.433 . S
C115 N117 1.384 . S
N116 C112 1.427 . S
N116 C113 1.384 . S
N117 C109 1.427 . S
N117 C115 1.384 . S
H118 C124 0.930 . S
H119 C128 0.930 . S
H120 C133 0.929 . S
H121 C131 0.929 . S
H122 C126 0.929 . S
H123 C132 0.929 . S
C124 H118 0.930 . S
C124 C125 1.367 . S
C124 C132 1.378 . S
C125 C124 1.367 . S
C125 C133 1.433 . S
C126 H122 0.929 . S
C126 C128 1.378 . S
C126 C130 1.350 . S
C127 C130 1.463 . S
C127 C132 1.350 . S
C127 N135 1.427 . S
C128 H119 0.930 . S
C128 C126 1.378 . S
C128 C129 1.367 . S
C129 C128 1.367 . S
C129 C131 1.433 . S
C130 C126 1.350 . S
C130 C127 1.463 . S
C130 N134 1.427 . S
C131 H121 0.929 . S
C131 C129 1.433 . S
C131 N134 1.384 . S
C132 H123 0.929 . S
C132 C124 1.378 . S
C132 C127 1.350 . S
C133 H120 0.929 . S
C133 C125 1.433 . S
C133 N135 1.384 . S
N134 C130 1.427 . S
N134 C131 1.384 . S
N135 C127 1.427 . S
N135 C133 1.384 . S
H136 C142 0.930 . S
H137 C146 0.930 . S
H138 C151 0.929 . S
H139 C149 0.929 . S
H140 C144 0.929 . S
H141 C150 0.929 . S
C142 H136 0.930 . S
C142 C143 1.367 . S
C142 C150 1.378 . S
C143 C142 1.367 . S
C143 C151 1.433 . S
C144 H140 0.929 . S
C144 C146 1.378 . S
C144 C148 1.350 . S
C145 C148 1.463 . S
C145 C150 1.350 . S
C145 N153 1.427 . S
C146 H137 0.930 . S
C146 C144 1.378 . S
C146 C147 1.367 . S
C147 C146 1.367 . S
C147 C149 1.433 . S
C148 C144 1.350 . S
C148 C145 1.463 . S
C148 N152 1.427 . S
C149 H139 0.929 . S
C149 C147 1.433 . S
C149 N152 1.384 . S
C150 H141 0.929 . S
C150 C142 1.378 . S
C150 C145 1.350 . S
C151 H138 0.929 . S
C151 C143 1.433 . S
C151 N153 1.384 . S
N152 C148 1.427 . S
N152 C149 1.384 . S
N153 C145 1.427 . S
N153 C151 1.384 . S
H154 C160 0.930 . S
H155 C164 0.930 . S
H156 C169 0.929 . S
H157 C167 0.929 . S
H158 C162 0.929 . S
H159 C168 0.929 . S
C160 H154 0.930 . S
C160 C161 1.367 . S
C160 C168 1.378 . S
C161 C160 1.367 . S
C161 C169 1.433 . S
C162 H158 0.929 . S
C162 C164 1.378 . S
C162 C166 1.350 . S
C163 C166 1.463 . S
C163 C168 1.350 . S
C163 N171 1.427 . S
C164 H155 0.930 . S
C164 C162 1.378 . S
C164 C165 1.367 . S
C165 C164 1.367 . S
C165 C167 1.433 . S
C166 C162 1.350 . S
C166 C163 1.463 . S
C166 N170 1.427 . S
C167 H157 0.929 . S
C167 C165 1.433 . S
C167 N170 1.384 . S
C168 H159 0.929 . S
C168 C160 1.378 . S
C168 C163 1.350 . S
C169 H156 0.929 . S
C169 C161 1.433 . S
C169 N171 1.384 . S
N170 C166 1.427 . S
N170 C167 1.384 . S
N171 C163 1.427 . S
N171 C169 1.384 . S
H172 C178 0.930 . S
H173 C182 0.930 . S
H174 C187 0.929 . S
H175 C185 0.929 . S
H176 C180 0.929 . S
H177 C186 0.929 . S
C178 H172 0.930 . S
C178 C179 1.367 . S
C178 C186 1.378 . S
C179 C178 1.367 . S
C179 C187 1.433 . S
C180 H176 0.929 . S
C180 C182 1.378 . S
C180 C184 1.350 . S
C181 C184 1.463 . S
C181 C186 1.350 . S
C181 N189 1.427 . S
C182 H173 0.930 . S
C182 C180 1.378 . S
C182 C183 1.367 . S
C183 C182 1.367 . S
C183 C185 1.433 . S
C184 C180 1.350 . S
C184 C181 1.463 . S
C184 N188 1.427 . S
C185 H175 0.929 . S
C185 C183 1.433 . S
C185 N188 1.384 . S
C186 H177 0.929 . S
C186 C178 1.378 . S
C186 C181 1.350 . S
C187 H174 0.929 . S
C187 C179 1.433 . S
C187 N189 1.384 . S
N188 C184 1.427 . S
N188 C185 1.384 . S
N189 C181 1.427 . S
N189 C187 1.384 . S
H190 C196 0.930 . S
H191 C200 0.930 . S
H192 C205 0.929 . S
H193 C203 0.929 . S
H194 C198 0.929 . S
H195 C204 0.929 . S
C196 H190 0.930 . S
C196 C197 1.367 . S
C196 C204 1.378 . S
C197 C196 1.367 . S
C197 C205 1.433 . S
C198 H194 0.929 . S
C198 C200 1.378 . S
C198 C202 1.350 . S
C199 C202 1.463 . S
C199 C204 1.350 . S
C199 N207 1.427 . S
C200 H191 0.930 . S
C200 C198 1.378 . S
C200 C201 1.367 . S
C201 C200 1.367 . S
C201 C203 1.433 . S
C202 C198 1.350 . S
C202 C199 1.463 . S
C202 N206 1.427 . S
C203 H193 0.929 . S
C203 C201 1.433 . S
C203 N206 1.384 . S
C204 H195 0.929 . S
C204 C196 1.378 . S
C204 C199 1.350 . S
C205 H192 0.929 . S
C205 C197 1.433 . S
C205 N207 1.384 . S
N206 C202 1.427 . S
N206 C203 1.384 . S
N207 C199 1.427 . S
N207 C205 1.384 . S
C71 C23 1.445 . S
C75 C55 1.445 . S
C89 C24 1.450 . S
C93 C59 1.457 . S
C107 C8 1.453 . S
C111 C49 1.457 . S
C125 C22 1.447 . S
C129 C54 1.451 . S
C143 C17 1.448 . S
C147 C40 1.450 . S
C165 C56 1.457 . S
C161 C27 1.443 . S
C179 C30 1.452 . S
C183 C62 1.458 . S
C201 C63 1.458 . S
C197 C31 1.452 . S
