# Generated by pormake.
# Topology rtl, (3,6)-cn, num edge types: 1
# Building blocks:
#     Node 0, Type 0, BuildingBlock: OLANEW_clean_sbu_2, # of connection points: 3
#     Node 1, Type 0, BuildingBlock: OLANEW_clean_sbu_2, # of connection points: 3
#     Node 2, Type 0, BuildingBlock: OLANEW_clean_sbu_2, # of connection points: 3
#     Node 3, Type 0, BuildingBlock: OLANEW_clean_sbu_2, # of connection points: 3
#     Node 4, Type 1, BuildingBlock: LEVNOQ01_clean_sbu_1, # of connection points: 6
#     Node 5, Type 1, BuildingBlock: LEVNOQ01_clean_sbu_1, # of connection points: 6
#     Edge 6, Type (0, 1), BuildingBlock: AJUNOK_clean_linker_0, # of connection points: 2
#     Edge 7, Type (0, 1), BuildingBlock: AJUNOK_clean_linker_0, # of connection points: 2
#     Edge 8, Type (0, 1), BuildingBlock: AJUNOK_clean_linker_0, # of connection points: 2
#     Edge 9, Type (0, 1), BuildingBlock: AJUNOK_clean_linker_0, # of connection points: 2
#     Edge 10, Type (0, 1), BuildingBlock: AJUNOK_clean_linker_0, # of connection points: 2
#     Edge 11, Type (0, 1), BuildingBlock: AJUNOK_clean_linker_0, # of connection points: 2
#     Edge 12, Type (0, 1), BuildingBlock: AJUNOK_clean_linker_0, # of connection points: 2
#     Edge 13, Type (0, 1), BuildingBlock: AJUNOK_clean_linker_0, # of connection points: 2
#     Edge 14, Type (0, 1), BuildingBlock: AJUNOK_clean_linker_0, # of connection points: 2
#     Edge 15, Type (0, 1), BuildingBlock: AJUNOK_clean_linker_0, # of connection points: 2
#     Edge 16, Type (0, 1), BuildingBlock: AJUNOK_clean_linker_0, # of connection points: 2
#     Edge 17, Type (0, 1), BuildingBlock: AJUNOK_clean_linker_0, # of connection points: 2
# Relax obj value: 0.017
# Max RMSD: 0.117
# Mean RMSD: 0.073
data_MOF--net-rtl--node1-OLANEW_clean_sbu_2--node2-LEVNOQ01_clean_sbu_1--edge1-AJUNOK_clean_linker_0
_symmetry_space_group_name_H-M    P1
_symmetry_Int_Tables_number       1
_symmetry_cell_setting            triclinic
loop_
_symmetry_equiv_pos_as_xyz
'x, y, z'
_cell_length_a     27.949495
_cell_length_b     28.166025
_cell_length_c     17.746611
_cell_angle_alpha  86.398841
_cell_angle_beta   101.67224
_cell_angle_gamma 90.313621
loop_
_atom_site_label
_atom_site_type_symbol
_atom_site_fract_x
_atom_site_fract_y
_atom_site_fract_z
_atom_type_partial_charge
O0 O 0.19616 0.85523 0.00661 0.0
Cd1 Cd 0.23144 0.81164 0.12954 0.0
O2 O 0.25589 0.90695 0.01808 0.0
Cd3 Cd 0.27917 0.88598 0.14008 0.0
O4 O 0.24531 0.89671 0.23817 0.0
C5 C 0.20952 0.92576 0.22106 0.0
O6 O 0.19903 0.94564 0.15065 0.0
C7 C 0.21706 0.89037 0.97841 0.0
C8 C 0.29682 0.74235 0.10494 0.0
O9 O 0.2519 0.73256 0.1043 0.0
O10 O 0.31106 0.78478 0.11914 0.0
O11 O 0.68267 0.75572 0.79796 0.0
Cd12 Cd 0.7098 0.83584 0.76236 0.0
O13 O 0.67373 0.73906 0.67732 0.0
Cd14 Cd 0.65497 0.70366 0.56818 0.0
O15 O 0.64029 0.68012 0.45016 0.0
C16 C 0.6007 0.69112 0.4029 0.0
O17 O 0.5679 0.71683 0.42581 0.0
C18 C 0.66728 0.72755 0.7452 0.0
C19 C 0.79987 0.85203 0.7212 0.0
O20 O 0.7941 0.86002 0.78909 0.0
O21 O 0.76416 0.83458 0.67424 0.0
O22 O 0.74134 0.13271 0.20457 0.0
Cd23 Cd 0.67313 0.15082 0.09445 0.0
O24 O 0.77851 0.14196 0.10841 0.0
Cd25 Cd 0.83542 0.14129 0.04138 0.0
O26 O 0.86839 0.13268 0.94246 0.0
C27 C 0.86575 0.0925 0.91318 0.0
O28 O 0.84413 0.05713 0.94442 0.0
C29 C 0.78043 0.12962 0.17908 0.0
C30 C 0.64527 0.24566 0.05628 0.0
O31 O 0.62072 0.21779 0.09376 0.0
O32 O 0.68399 0.22926 0.0387 0.0
O33 O 0.36794 0.31405 0.59247 0.0
Cd34 Cd 0.34185 0.27637 0.46838 0.0
O35 O 0.30496 0.36307 0.57019 0.0
Cd36 Cd 0.28946 0.35277 0.44726 0.0
O37 O 0.31752 0.37861 0.34645 0.0
C38 C 0.35366 0.4061 0.36456 0.0
O39 O 0.3683 0.41477 0.43754 0.0
C40 C 0.34282 0.34566 0.61549 0.0
C41 C 0.25687 0.22143 0.46036 0.0
O42 O 0.29931 0.20274 0.485 0.0
O43 O 0.25476 0.26577 0.43915 0.0
O44 O 0.99 0.11357 0.64966 0.0
Mg45 Mg 0.05705 0.08693 0.63698 0.0
O46 O 0.97783 0.03776 0.63666 0.0
Mg47 Mg 0.02457 0.01338 0.54836 0.0
O48 O 0.07397 0.08181 0.53149 0.0
O49 O 0.09733 0.14154 0.60966 0.0
O50 O 0.07152 0.98705 0.46247 0.0
O51 O 0.96515 0.04608 0.44691 0.0
Mg52 Mg 0.98449 0.93216 0.45093 0.0
O53 O 0.97661 0.9459 0.55924 0.0
O54 O 0.05455 0.9125 0.43838 0.0
O55 O 0.94467 0.98561 0.37258 0.0
O56 O 0.94642 0.88105 0.50041 0.0
C57 C 0.10465 0.99685 0.71203 0.0
C58 C 0.9665 0.07669 0.66179 0.0
C59 C 0.09744 0.12148 0.54641 0.0
C60 C 0.08164 0.9482 0.43566 0.0
C61 C 0.94093 0.02924 0.38544 0.0
C62 C 0.95104 0.90709 0.55866 0.0
O63 O 0.09815 0.04006 0.72366 0.0
O64 O 0.08262 0.97922 0.65004 0.0
O65 O 0.60252 0.57202 0.10624 0.0
Mg66 Mg 0.56456 0.50711 0.10181 0.0
O67 O 0.52434 0.58357 0.08496 0.0
Mg68 Mg 0.49393 0.52865 0.98948 0.0
O69 O 0.5542 0.46575 0.01016 0.0
O70 O 0.61422 0.45461 0.11564 0.0
O71 O 0.45546 0.47597 0.896 0.0
O72 O 0.53916 0.56912 0.9063 0.0
Mg73 Mg 0.4237 0.5806 0.8489 0.0
O74 O 0.4325 0.58558 0.96491 0.0
O75 O 0.39464 0.51483 0.81722 0.0
O76 O 0.48639 0.60484 0.8096 0.0
O77 O 0.37786 0.62908 0.87923 0.0
C78 C 0.46861 0.48402 0.14703 0.0
C79 C 0.56714 0.59681 0.11563 0.0
C80 C 0.59158 0.4414 0.04975 0.0
C81 C 0.41728 0.47644 0.84209 0.0
C82 C 0.53007 0.59528 0.84328 0.0
C83 C 0.39795 0.61745 0.94993 0.0
O84 O 0.51308 0.4929 0.17479 0.0
O85 O 0.45217 0.49056 0.07475 0.0
C86 C 0.21492 0.14418 0.48197 0.0
C87 C 0.21176 0.19355 0.46254 0.0
C88 C 0.17469 0.11873 0.49919 0.0
C89 C 0.13017 0.1419 0.49797 0.0
H90 H 0.24945 0.12554 0.48852 0.0
H91 H 0.17987 0.08182 0.52051 0.0
S92 S 0.10001 0.26836 0.43929 0.0
N93 N 0.15785 0.2629 0.43306 0.0
N94 N 0.08315 0.21503 0.46767 0.0
C95 C 0.1252 0.19001 0.47223 0.0
C96 C 0.16578 0.21588 0.45384 0.0
C97 C 0.31267 0.66034 0.06857 0.0
C98 C 0.32965 0.70682 0.0826 0.0
C99 C 0.33826 0.62889 0.03261 0.0
C100 C 0.3819 0.64263 0.01032 0.0
H101 H 0.27787 0.64902 0.08113 0.0
H102 H 0.32201 0.59491 0.01722 0.0
S103 S 0.44572 0.75726 0.04243 0.0
N104 N 0.39611 0.76276 0.07844 0.0
N105 N 0.44349 0.70343 0.01004 0.0
C106 C 0.40126 0.68734 0.02899 0.0
C107 C 0.37539 0.71947 0.06567 0.0
C108 C 0.87752 0.83412 0.67957 0.0
C109 C 0.84411 0.86766 0.69405 0.0
C110 C 0.9151 0.84801 0.64118 0.0
C111 C 0.92023 0.8958 0.61575 0.0
H112 H 0.87333 0.79673 0.6951 0.0
H113 H 0.93878 0.82081 0.62777 0.0
S114 S 0.8391 0.99616 0.63463 0.0
N115 N 0.81751 0.9501 0.67918 0.0
N116 N 0.88704 0.97604 0.60476 0.0
C117 C 0.88751 0.92973 0.63146 0.0
C118 C 0.84961 0.91563 0.67115 0.0
C119 C 0.66651 0.33158 0.04617 0.0
C120 C 0.63068 0.29605 0.03785 0.0
C121 C 0.65338 0.37976 0.04258 0.0
C122 C 0.60403 0.39405 0.02806 0.0
H123 H 0.70491 0.32199 0.06101 0.0
H124 H 0.68203 0.40583 0.05576 0.0
S125 S 0.49648 0.31514 0.98939 0.0
N126 N 0.54394 0.27847 0.00616 0.0
N127 N 0.51931 0.36927 0.99666 0.0
C128 C 0.56794 0.35915 0.01243 0.0
C129 C 0.58127 0.31 0.01823 0.0
C130 C 0.19022 0.91396 0.35317 0.0
C131 C 0.17861 0.9352 0.27753 0.0
C132 C 0.15966 0.91971 0.40581 0.0
C133 C 0.11709 0.94765 0.38503 0.0
H134 H 0.22252 0.89176 0.37141 0.0
H135 H 0.16885 0.90151 0.46253 0.0
S136 S 0.06901 0.01014 0.19524 0.0
N137 N 0.12038 0.98497 0.18515 0.0
N138 N 0.06397 0.99609 0.28498 0.0
C139 C 0.10538 0.96979 0.3107 0.0
C140 C 0.13594 0.96356 0.25671 0.0
C141 C 0.64718 0.66334 0.83796 0.0
C142 C 0.63787 0.68566 0.76299 0.0
C143 C 0.61407 0.63084 0.86212 0.0
C144 C 0.57003 0.61986 0.81241 0.0
H145 H 0.67924 0.67282 0.87959 0.0
H146 H 0.62156 0.61679 0.9216 0.0
S147 S 0.53003 0.66526 0.60826 0.0
N148 N 0.58225 0.69234 0.63836 0.0
N149 N 0.52133 0.63017 0.68221 0.0
C150 C 0.56197 0.63937 0.73571 0.0
C151 C 0.5955 0.67256 0.71137 0.0
C152 C 0.83862 0.11849 0.30678 0.0
C153 C 0.82524 0.10825 0.2287 0.0
C154 C 0.87816 0.09489 0.35651 0.0
C155 C 0.90497 0.05947 0.33018 0.0
H156 H 0.81781 0.14427 0.32993 0.0
H157 H 0.88621 0.10281 0.4167 0.0
S158 S 0.88508 0.01981 0.13088 0.0
N159 N 0.84222 0.06039 0.12773 0.0
N160 N 0.91669 0.01691 0.22029 0.0
C161 C 0.89277 0.04995 0.25178 0.0
C162 C 0.85285 0.07408 0.20127 0.0
C163 C 0.41198 0.3715 0.71822 0.0
C164 C 0.36126 0.36816 0.68919 0.0
C165 C 0.43064 0.40354 0.7746 0.0
C166 C 0.39904 0.43301 0.80344 0.0
H167 H 0.43757 0.35225 0.69286 0.0
H168 H 0.46982 0.40809 0.79064 0.0
S169 S 0.26364 0.42967 0.76034 0.0
N170 N 0.28006 0.39095 0.70404 0.0
N171 N 0.31503 0.45086 0.80934 0.0
C172 C 0.34844 0.42609 0.78115 0.0
C173 C 0.32954 0.39372 0.72414 0.0
C174 C 0.63034 0.65718 0.29346 0.0
C175 C 0.59122 0.6734 0.32412 0.0
C176 C 0.62233 0.63602 0.22262 0.0
C177 C 0.57474 0.62949 0.17975 0.0
H178 H 0.66757 0.65973 0.32533 0.0
H179 H 0.65375 0.62254 0.20338 0.0
S180 S 0.45972 0.66898 0.23205 0.0
N181 N 0.5032 0.68466 0.30355 0.0
N182 N 0.48797 0.64401 0.17134 0.0
C183 C 0.53537 0.64787 0.20783 0.0
C184 C 0.54363 0.66992 0.27977 0.0
C185 C 0.89015 0.12491 0.79286 0.0
C186 C 0.88712 0.0859 0.84505 0.0
C187 C 0.9133 0.1207 0.73068 0.0
C188 C 0.93475 0.07746 0.71885 0.0
H189 H 0.8751 0.1592 0.80068 0.0
H190 H 0.91578 0.15201 0.69297 0.0
S191 S 0.93744 0.96483 0.84024 0.0
N192 N 0.90661 1.00243 0.88043 0.0
N193 N 0.95212 0.99496 0.76545 0.0
C194 C 0.93128 0.0379 0.76999 0.0
C195 C 0.90689 0.04201 0.83259 0.0
C196 C 0.42577 0.44874 0.33187 0.0
C197 C 0.38057 0.42676 0.30649 0.0
C198 C 0.45333 0.4675 0.27972 0.0
C199 C 0.43685 0.46548 0.19966 0.0
H200 H 0.4406 0.45101 0.39283 0.0
H201 H 0.48808 0.48359 0.30278 0.0
S202 S 0.31975 0.41361 0.10262 0.0
N203 N 0.31965 0.40528 0.19554 0.0
N204 N 0.37149 0.44091 0.0971 0.0
C205 C 0.39116 0.44452 0.17307 0.0
C206 C 0.36309 0.42501 0.22652 0.0
C207 C 0.15195 0.89506 0.8575 0.0
C208 C 0.19334 0.915 0.90367 0.0
C209 C 0.12472 0.92065 0.79254 0.0
C210 C 0.13751 0.96732 0.77229 0.0
H211 H 0.13948 0.86 0.87298 0.0
H212 H 0.0921 0.90473 0.76044 0.0
S213 S 0.24543 0.03399 0.86726 0.0
N214 N 0.24815 0.98292 0.91896 0.0
N215 N 0.19639 0.03089 0.79814 0.0
C216 C 0.18005 0.98674 0.81517 0.0
C217 C 0.20816 0.96059 0.88046 0.0
loop_
_geom_bond_atom_site_label_1
_geom_bond_atom_site_label_2
_geom_bond_distance
_geom_bond_site_symmetry_2
_ccdc_geom_bond_type
O0 Cd1 2.300 1_556 S
O0 C7 1.275 . S
Cd1 O0 2.300 1_554 S
Cd1 O9 2.381 . S
Cd1 O10 2.378 . S
O2 Cd3 2.385 . S
O2 C7 1.255 1_554 S
Cd3 O2 2.385 . S
Cd3 O4 2.317 . S
O4 Cd3 2.317 . S
O4 C5 1.232 . S
C5 O4 1.232 . S
C5 O6 1.218 . S
O6 C5 1.218 . S
C7 O0 1.275 . S
C7 O2 1.255 1_556 S
C8 O9 1.258 . S
C8 O10 1.256 . S
O9 Cd1 2.381 . S
O9 C8 1.258 . S
O10 Cd1 2.378 . S
O10 C8 1.256 . S
O11 Cd12 2.300 . S
O11 C18 1.275 . S
Cd12 O11 2.300 . S
Cd12 O20 2.381 . S
Cd12 O21 2.378 . S
O13 Cd14 2.385 . S
O13 C18 1.255 . S
Cd14 O13 2.385 . S
Cd14 O15 2.317 . S
O15 Cd14 2.317 . S
O15 C16 1.232 . S
C16 O15 1.232 . S
C16 O17 1.218 . S
O17 C16 1.218 . S
C18 O11 1.275 . S
C18 O13 1.255 . S
C19 O20 1.258 . S
C19 O21 1.256 . S
O20 Cd12 2.381 . S
O20 C19 1.258 . S
O21 Cd12 2.378 . S
O21 C19 1.256 . S
O22 Cd23 2.300 . S
O22 C29 1.275 . S
Cd23 O22 2.300 . S
Cd23 O31 2.381 . S
Cd23 O32 2.378 1_554 S
O24 Cd25 2.385 . S
O24 C29 1.255 . S
Cd25 O24 2.385 . S
Cd25 O26 2.317 1_554 S
O26 Cd25 2.317 1_556 S
O26 C27 1.232 . S
C27 O26 1.232 . S
C27 O28 1.218 . S
O28 C27 1.218 . S
C29 O22 1.275 . S
C29 O24 1.255 . S
C30 O31 1.258 . S
C30 O32 1.256 1_554 S
O31 Cd23 2.381 . S
O31 C30 1.258 . S
O32 Cd23 2.378 1_556 S
O32 C30 1.256 1_556 S
O33 Cd34 2.300 . S
O33 C40 1.275 . S
Cd34 O33 2.300 . S
Cd34 O42 2.381 . S
Cd34 O43 2.378 . S
O35 Cd36 2.385 . S
O35 C40 1.255 . S
Cd36 O35 2.385 . S
Cd36 O37 2.317 . S
O37 Cd36 2.317 . S
O37 C38 1.232 . S
C38 O37 1.232 . S
C38 O39 1.218 . S
O39 C38 1.218 . S
C40 O33 1.275 . S
C40 O35 1.255 . S
C41 O42 1.258 . S
C41 O43 1.256 . S
O42 Cd34 2.381 . S
O42 C41 1.258 . S
O43 Cd34 2.378 . S
O43 C41 1.256 . S
O44 Mg45 1.990 . S
O44 C58 1.253 1_455 S
Mg45 O44 1.990 . S
Mg45 O48 2.180 . S
Mg45 O49 2.117 . S
Mg45 O63 2.030 . S
O46 Mg47 2.072 1_655 S
O46 C58 1.260 . S
Mg47 O46 2.072 1_455 S
Mg47 O48 2.099 . S
Mg47 O50 2.079 1_545 S
Mg47 O51 2.072 1_455 S
Mg47 O53 2.099 1_445 S
Mg47 O64 2.079 1_545 S
O48 Mg45 2.180 . S
O48 Mg47 2.099 . S
O48 C59 1.279 . S
O49 Mg45 2.117 . S
O49 C59 1.250 . S
O50 Mg47 2.079 1_565 S
O50 C60 1.264 . S
O51 Mg47 2.072 1_655 S
O51 C61 1.260 . S
Mg52 O53 2.180 . S
Mg52 O54 2.030 1_655 S
Mg52 O55 1.990 1_565 S
Mg52 O56 2.117 . S
O53 Mg47 2.099 1_665 S
O53 Mg52 2.180 . S
O53 C62 1.279 . S
O54 Mg52 2.030 1_455 S
O54 C60 1.248 . S
O55 Mg52 1.990 1_545 S
O55 C61 1.253 . S
O56 Mg52 2.117 . S
O56 C62 1.250 . S
C57 O63 1.248 1_565 S
C57 O64 1.264 . S
C58 O44 1.253 1_655 S
C58 O46 1.260 . S
C59 O48 1.279 . S
C59 O49 1.250 . S
C60 O50 1.264 . S
C60 O54 1.248 . S
C61 O51 1.260 . S
C61 O55 1.253 . S
C62 O53 1.279 . S
C62 O56 1.250 . S
O63 Mg45 2.030 . S
O63 C57 1.248 1_545 S
O64 Mg47 2.079 1_565 S
O64 C57 1.264 . S
O65 Mg66 1.990 . S
O65 C79 1.253 . S
Mg66 O65 1.990 . S
Mg66 O69 2.180 . S
Mg66 O70 2.117 . S
Mg66 O84 2.030 . S
O67 Mg68 2.072 . S
O67 C79 1.260 . S
Mg68 O67 2.072 . S
Mg68 O69 2.099 . S
Mg68 O71 2.079 1_554 S
Mg68 O72 2.072 1_554 S
Mg68 O74 2.099 1_554 S
Mg68 O85 2.079 . S
O69 Mg66 2.180 . S
O69 Mg68 2.099 . S
O69 C80 1.279 . S
O70 Mg66 2.117 . S
O70 C80 1.250 . S
O71 Mg68 2.079 1_556 S
O71 C81 1.264 . S
O72 Mg68 2.072 1_556 S
O72 C82 1.260 . S
Mg73 O74 2.180 . S
Mg73 O75 2.030 . S
Mg73 O76 1.990 . S
Mg73 O77 2.117 . S
O74 Mg68 2.099 1_556 S
O74 Mg73 2.180 . S
O74 C83 1.279 . S
O75 Mg73 2.030 . S
O75 C81 1.248 . S
O76 Mg73 1.990 . S
O76 C82 1.253 . S
O77 Mg73 2.117 . S
O77 C83 1.250 . S
C78 O84 1.248 . S
C78 O85 1.264 . S
C79 O65 1.253 . S
C79 O67 1.260 . S
C80 O69 1.279 . S
C80 O70 1.250 . S
C81 O71 1.264 . S
C81 O75 1.248 . S
C82 O72 1.260 . S
C82 O76 1.253 . S
C83 O74 1.279 . S
C83 O77 1.250 . S
O84 Mg66 2.030 . S
O84 C78 1.248 . S
O85 Mg68 2.079 . S
O85 C78 1.264 . S
C86 C87 1.369 . S
C86 C88 1.419 . S
C86 H90 0.930 . S
C87 C86 1.369 . S
C87 C96 1.429 . S
C88 C86 1.419 . S
C88 C89 1.363 . S
C88 H91 0.929 . S
C89 C88 1.363 . S
C89 C95 1.428 . S
H90 C86 0.930 . S
H91 C88 0.929 . S
S92 N93 1.613 . S
S92 N94 1.610 . S
N93 S92 1.613 . S
N93 C96 1.350 . S
N94 S92 1.610 . S
N94 C95 1.351 . S
C95 C89 1.428 . S
C95 N94 1.351 . S
C95 C96 1.434 . S
C96 C87 1.429 . S
C96 N93 1.350 . S
C96 C95 1.434 . S
C97 C98 1.369 . S
C97 C99 1.419 . S
C97 H101 0.930 . S
C98 C97 1.369 . S
C98 C107 1.429 1_554 S
C99 C97 1.419 . S
C99 C100 1.363 . S
C99 H102 0.929 . S
C100 C99 1.363 . S
C100 C106 1.428 1_554 S
H101 C97 0.930 . S
H102 C99 0.929 . S
S103 N104 1.613 . S
S103 N105 1.610 . S
N104 S103 1.613 . S
N104 C107 1.350 . S
N105 S103 1.610 . S
N105 C106 1.351 . S
C106 C100 1.428 1_556 S
C106 N105 1.351 . S
C106 C107 1.434 . S
C107 C98 1.429 1_556 S
C107 N104 1.350 . S
C107 C106 1.434 . S
C108 C109 1.369 . S
C108 C110 1.419 . S
C108 H112 0.930 . S
C109 C108 1.369 . S
C109 C118 1.429 . S
C110 C108 1.419 . S
C110 C111 1.363 . S
C110 H113 0.929 . S
C111 C110 1.363 . S
C111 C117 1.428 . S
H112 C108 0.930 . S
H113 C110 0.929 . S
S114 N115 1.613 . S
S114 N116 1.610 . S
N115 S114 1.613 . S
N115 C118 1.350 . S
N116 S114 1.610 . S
N116 C117 1.351 . S
C117 C111 1.428 . S
C117 N116 1.351 . S
C117 C118 1.434 . S
C118 C109 1.429 . S
C118 N115 1.350 . S
C118 C117 1.434 . S
C119 C120 1.369 . S
C119 C121 1.419 . S
C119 H123 0.930 . S
C120 C119 1.369 . S
C120 C129 1.429 1_554 S
C121 C119 1.419 . S
C121 C122 1.363 . S
C121 H124 0.929 . S
C122 C121 1.363 . S
C122 C128 1.428 1_554 S
H123 C119 0.930 . S
H124 C121 0.929 . S
S125 N126 1.613 . S
S125 N127 1.610 . S
N126 S125 1.613 . S
N126 C129 1.350 . S
N127 S125 1.610 . S
N127 C128 1.351 . S
C128 C122 1.428 1_556 S
C128 N127 1.351 . S
C128 C129 1.434 . S
C129 C120 1.429 1_556 S
C129 N126 1.350 . S
C129 C128 1.434 . S
C130 C131 1.369 . S
C130 C132 1.419 . S
C130 H134 0.930 . S
C131 C130 1.369 . S
C131 C140 1.429 . S
C132 C130 1.419 . S
C132 C133 1.363 . S
C132 H135 0.929 . S
C133 C132 1.363 . S
C133 C139 1.428 . S
H134 C130 0.930 . S
H135 C132 0.929 . S
S136 N137 1.613 . S
S136 N138 1.610 . S
N137 S136 1.613 . S
N137 C140 1.350 . S
N138 S136 1.610 . S
N138 C139 1.351 . S
C139 C133 1.428 . S
C139 N138 1.351 . S
C139 C140 1.434 . S
C140 C131 1.429 . S
C140 N137 1.350 . S
C140 C139 1.434 . S
C141 C142 1.369 . S
C141 C143 1.419 . S
C141 H145 0.930 . S
C142 C141 1.369 . S
C142 C151 1.429 . S
C143 C141 1.419 . S
C143 C144 1.363 . S
C143 H146 0.929 . S
C144 C143 1.363 . S
C144 C150 1.428 . S
H145 C141 0.930 . S
H146 C143 0.929 . S
S147 N148 1.613 . S
S147 N149 1.610 . S
N148 S147 1.613 . S
N148 C151 1.350 . S
N149 S147 1.610 . S
N149 C150 1.351 . S
C150 C144 1.428 . S
C150 N149 1.351 . S
C150 C151 1.434 . S
C151 C142 1.429 . S
C151 N148 1.350 . S
C151 C150 1.434 . S
C152 C153 1.369 . S
C152 C154 1.419 . S
C152 H156 0.930 . S
C153 C152 1.369 . S
C153 C162 1.429 . S
C154 C152 1.419 . S
C154 C155 1.363 . S
C154 H157 0.929 . S
C155 C154 1.363 . S
C155 C161 1.428 . S
H156 C152 0.930 . S
H157 C154 0.929 . S
S158 N159 1.613 . S
S158 N160 1.610 . S
N159 S158 1.613 . S
N159 C162 1.350 . S
N160 S158 1.610 . S
N160 C161 1.351 . S
C161 C155 1.428 . S
C161 N160 1.351 . S
C161 C162 1.434 . S
C162 C153 1.429 . S
C162 N159 1.350 . S
C162 C161 1.434 . S
C163 C164 1.369 . S
C163 C165 1.419 . S
C163 H167 0.930 . S
C164 C163 1.369 . S
C164 C173 1.429 . S
C165 C163 1.419 . S
C165 C166 1.363 . S
C165 H168 0.929 . S
C166 C165 1.363 . S
C166 C172 1.428 . S
H167 C163 0.930 . S
H168 C165 0.929 . S
S169 N170 1.613 . S
S169 N171 1.610 . S
N170 S169 1.613 . S
N170 C173 1.350 . S
N171 S169 1.610 . S
N171 C172 1.351 . S
C172 C166 1.428 . S
C172 N171 1.351 . S
C172 C173 1.434 . S
C173 C164 1.429 . S
C173 N170 1.350 . S
C173 C172 1.434 . S
C174 C175 1.369 . S
C174 C176 1.419 . S
C174 H178 0.930 . S
C175 C174 1.369 . S
C175 C184 1.429 . S
C176 C174 1.419 . S
C176 C177 1.363 . S
C176 H179 0.929 . S
C177 C176 1.363 . S
C177 C183 1.428 . S
H178 C174 0.930 . S
H179 C176 0.929 . S
S180 N181 1.613 . S
S180 N182 1.610 . S
N181 S180 1.613 . S
N181 C184 1.350 . S
N182 S180 1.610 . S
N182 C183 1.351 . S
C183 C177 1.428 . S
C183 N182 1.351 . S
C183 C184 1.434 . S
C184 C175 1.429 . S
C184 N181 1.350 . S
C184 C183 1.434 . S
C185 C186 1.369 . S
C185 C187 1.419 . S
C185 H189 0.930 . S
C186 C185 1.369 . S
C186 C195 1.429 . S
C187 C185 1.419 . S
C187 C188 1.363 . S
C187 H190 0.929 . S
C188 C187 1.363 . S
C188 C194 1.428 . S
H189 C185 0.930 . S
H190 C187 0.929 . S
S191 N192 1.613 . S
S191 N193 1.610 . S
N192 S191 1.613 . S
N192 C195 1.350 . S
N193 S191 1.610 . S
N193 C194 1.351 . S
C194 C188 1.428 . S
C194 N193 1.351 . S
C194 C195 1.434 . S
C195 C186 1.429 . S
C195 N192 1.350 . S
C195 C194 1.434 . S
C196 C197 1.369 . S
C196 C198 1.419 . S
C196 H200 0.930 . S
C197 C196 1.369 . S
C197 C206 1.429 . S
C198 C196 1.419 . S
C198 C199 1.363 . S
C198 H201 0.929 . S
C199 C198 1.363 . S
C199 C205 1.428 . S
H200 C196 0.930 . S
H201 C198 0.929 . S
S202 N203 1.613 . S
S202 N204 1.610 . S
N203 S202 1.613 . S
N203 C206 1.350 . S
N204 S202 1.610 . S
N204 C205 1.351 . S
C205 C199 1.428 . S
C205 N204 1.351 . S
C205 C206 1.434 . S
C206 C197 1.429 . S
C206 N203 1.350 . S
C206 C205 1.434 . S
C207 C208 1.369 . S
C207 C209 1.419 . S
C207 H211 0.930 . S
C208 C207 1.369 . S
C208 C217 1.429 . S
C209 C207 1.419 . S
C209 C210 1.363 . S
C209 H212 0.929 . S
C210 C209 1.363 . S
C210 C216 1.428 . S
H211 C207 0.930 . S
H212 C209 0.929 . S
S213 N214 1.613 1_545 S
S213 N215 1.610 1_545 S
N214 S213 1.613 1_565 S
N214 C217 1.350 . S
N215 S213 1.610 1_565 S
N215 C216 1.351 . S
C216 C210 1.428 . S
C216 N215 1.351 . S
C216 C217 1.434 . S
C217 C208 1.429 . S
C217 N214 1.350 . S
C217 C216 1.434 . S
C89 C59 1.254 . S
C87 C41 1.455 . S
C98 C8 1.460 . S
C100 C83 1.316 1_554 S
C109 C19 1.625 . S
C111 C62 1.461 . S
C120 C30 1.560 . S
C122 C80 1.327 . S
C133 C60 1.498 . S
C131 C5 1.374 . S
C144 C82 1.618 . S
C142 C18 1.659 . S
C153 C29 1.564 . S
C155 C61 1.544 . S
C164 C40 1.558 . S
C166 C81 1.532 . S
C177 C79 1.420 . S
C175 C16 1.312 . S
C188 C58 1.431 . S
C186 C27 1.313 . S
C199 C78 1.354 . S
C197 C38 1.257 . S
C208 C7 1.390 . S
C210 C57 1.355 . S
