# Generated by pormake.
# Topology cml, (3,6)-cn, num edge types: 1
# Building blocks:
#     Node 0, Type 0, BuildingBlock: OLANEW_clean_sbu_2, # of connection points: 3
#     Node 1, Type 0, BuildingBlock: OLANEW_clean_sbu_2, # of connection points: 3
#     Node 2, Type 0, BuildingBlock: OLANEW_clean_sbu_2, # of connection points: 3
#     Node 3, Type 0, BuildingBlock: OLANEW_clean_sbu_2, # of connection points: 3
#     Node 4, Type 0, BuildingBlock: OLANEW_clean_sbu_2, # of connection points: 3
#     Node 5, Type 0, BuildingBlock: OLANEW_clean_sbu_2, # of connection points: 3
#     Node 6, Type 0, BuildingBlock: OLANEW_clean_sbu_2, # of connection points: 3
#     Node 7, Type 0, BuildingBlock: OLANEW_clean_sbu_2, # of connection points: 3
#     Node 8, Type 1, BuildingBlock: IZENUY_clean_sbu_0, # of connection points: 6
#     Node 9, Type 1, BuildingBlock: IZENUY_clean_sbu_0, # of connection points: 6
#     Node 10, Type 1, BuildingBlock: IZENUY_clean_sbu_0, # of connection points: 6
#     Node 11, Type 1, BuildingBlock: IZENUY_clean_sbu_0, # of connection points: 6
#     Edge 12, Type (0, 1), None
#     Edge 13, Type (0, 1), None
#     Edge 14, Type (0, 1), None
#     Edge 15, Type (0, 1), None
#     Edge 16, Type (0, 1), None
#     Edge 17, Type (0, 1), None
#     Edge 18, Type (0, 1), None
#     Edge 19, Type (0, 1), None
#     Edge 20, Type (0, 1), None
#     Edge 21, Type (0, 1), None
#     Edge 22, Type (0, 1), None
#     Edge 23, Type (0, 1), None
#     Edge 24, Type (0, 1), None
#     Edge 25, Type (0, 1), None
#     Edge 26, Type (0, 1), None
#     Edge 27, Type (0, 1), None
#     Edge 28, Type (0, 1), None
#     Edge 29, Type (0, 1), None
#     Edge 30, Type (0, 1), None
#     Edge 31, Type (0, 1), None
#     Edge 32, Type (0, 1), None
#     Edge 33, Type (0, 1), None
#     Edge 34, Type (0, 1), None
#     Edge 35, Type (0, 1), None
# Relax obj value: 0.023
# Max RMSD: 0.067
# Mean RMSD: 0.059
data_MOF--net-cml--node1-OLANEW_clean_sbu_2--node2-IZENUY_clean_sbu_0--edge1-none
_symmetry_space_group_name_H-M    P1
_symmetry_Int_Tables_number       1
_symmetry_cell_setting            triclinic
loop_
_symmetry_equiv_pos_as_xyz
'x, y, z'
_cell_length_a     18.805798
_cell_length_b     20.323086
_cell_length_c     19.578506
_cell_angle_alpha  85.739643
_cell_angle_beta   85.234064
_cell_angle_gamma 88.526377
loop_
_atom_site_label
_atom_site_type_symbol
_atom_site_fract_x
_atom_site_fract_y
_atom_site_fract_z
_atom_type_partial_charge
O0 O 0.35136 0.47103 0.86898 0.0
Cd1 Cd 0.23503 0.42485 0.92042 0.0
O2 O 0.36662 0.49134 0.97432 0.0
Cd3 Cd 0.41836 0.52135 0.06127 0.0
O4 O 0.46021 0.4988 0.16043 0.0
C5 C 0.4464 0.44396 0.19394 0.0
O6 O 0.40524 0.40186 0.16917 0.0
C7 C 0.38845 0.49704 0.91109 0.0
C8 C 0.16842 0.31084 0.88426 0.0
O9 O 0.17708 0.36205 0.84231 0.0
O10 O 0.19464 0.31112 0.94257 0.0
O11 O 0.69042 0.67598 0.58579 0.0
Cd12 Cd 0.74923 0.67877 0.468 0.0
O13 O 0.7522 0.5981 0.64037 0.0
Cd14 Cd 0.80596 0.5785 0.54181 0.0
O15 O 0.73198 0.53484 0.47982 0.0
C16 C 0.70108 0.48307 0.50629 0.0
O17 O 0.71985 0.45565 0.56514 0.0
C18 C 0.70202 0.6411 0.64065 0.0
C19 C 0.87441 0.75045 0.43989 0.0
O20 O 0.87659 0.68732 0.44198 0.0
O21 O 0.81408 0.77953 0.45256 0.0
O22 O 0.70603 0.44625 0.91692 0.0
Cd23 Cd 0.79283 0.37631 0.97877 0.0
O24 O 0.71301 0.52222 -0.0093 0.0
Cd25 Cd 0.76281 0.45468 0.06534 0.0
O26 O 0.71827 0.40066 0.15874 0.0
C27 C 0.71921 0.42834 0.21464 0.0
O28 O 0.75532 0.48276 0.21514 0.0
C29 C 0.68979 0.5037 0.9362 0.0
C30 C 0.88534 0.2884 0.91007 0.0
O31 O 0.89405 0.35088 0.90149 0.0
O32 O 0.8312 0.26708 0.94868 0.0
O33 O 0.35675 0.55854 0.44344 0.0
Cd34 Cd 0.23312 0.58286 0.4863 0.0
O35 O 0.36688 0.50307 0.54289 0.0
Cd36 Cd 0.29308 0.57017 0.59701 0.0
O37 O 0.34539 0.62503 0.6697 0.0
C38 C 0.41163 0.62966 0.65164 0.0
O39 O 0.43634 0.60813 0.59255 0.0
C40 C 0.39058 0.51701 0.48102 0.0
C41 C 0.16703 0.7018 0.44592 0.0
O42 O 0.17995 0.657 0.40362 0.0
O43 O 0.18782 0.69181 0.50657 0.0
O44 O 0.85136 0.97103 0.86898 0.0
Cd45 Cd 0.73503 0.92485 0.92042 0.0
O46 O 0.86662 0.99134 0.97432 0.0
Cd47 Cd 0.91836 0.02135 0.06127 0.0
O48 O 0.96021 0.9988 0.16043 0.0
C49 C 0.9464 0.94396 0.19394 0.0
O50 O 0.90524 0.90186 0.16917 0.0
C51 C 0.88845 0.99704 0.91109 0.0
C52 C 0.66842 0.81084 0.88426 0.0
O53 O 0.67708 0.86205 0.84231 0.0
O54 O 0.69464 0.81112 0.94257 0.0
O55 O 0.19042 0.17598 0.58579 0.0
Cd56 Cd 0.24923 0.17877 0.468 0.0
O57 O 0.2522 0.0981 0.64037 0.0
Cd58 Cd 0.30596 0.0785 0.54181 0.0
O59 O 0.23198 0.03484 0.47982 0.0
C60 C 0.20108 0.98307 0.50629 0.0
O61 O 0.21985 0.95564 0.56514 0.0
C62 C 0.20202 0.1411 0.64065 0.0
C63 C 0.37441 0.25045 0.43989 0.0
O64 O 0.37659 0.18732 0.44198 0.0
O65 O 0.31408 0.27953 0.45256 0.0
O66 O 0.20603 0.94625 0.91692 0.0
Cd67 Cd 0.29283 0.87631 0.97877 0.0
O68 O 0.21301 0.02222 -0.0093 0.0
Cd69 Cd 0.26281 0.95468 0.06534 0.0
O70 O 0.21827 0.90066 0.15874 0.0
C71 C 0.21921 0.92833 0.21464 0.0
O72 O 0.25532 0.98276 0.21514 0.0
C73 C 0.18979 1.0037 0.9362 0.0
C74 C 0.38534 0.7884 0.91007 0.0
O75 O 0.39405 0.85088 0.90149 0.0
O76 O 0.3312 0.76708 0.94868 0.0
O77 O 0.85675 0.05854 0.44344 0.0
Cd78 Cd 0.73312 0.08286 0.4863 0.0
O79 O 0.86688 1.00307 0.54289 0.0
Cd80 Cd 0.79308 0.07017 0.59701 0.0
O81 O 0.84539 0.12503 0.6697 0.0
C82 C 0.91163 0.12966 0.65164 0.0
O83 O 0.93634 0.10813 0.59255 0.0
C84 C 0.89058 1.01701 0.48102 0.0
C85 C 0.66703 0.2018 0.44592 0.0
O86 O 0.67995 0.157 0.40362 0.0
O87 O 0.68782 0.19181 0.50657 0.0
Fe88 Fe 0.05273 0.82587 0.32568 0.0
Fe89 Fe 0.03696 0.86652 0.47456 0.0
O90 O 0.05221 0.88757 0.38521 0.0
Fe91 Fe 0.0663 0.97113 0.35549 0.0
O92 O 0.02678 0.96555 0.27399 0.0
O93 O 0.98021 0.86697 0.28232 0.0
O94 O 0.98499 0.77443 0.3769 0.0
C95 C 0.93944 0.78889 0.4252 0.0
C96 C 0.16547 0.91104 0.27132 0.0
O97 O 0.95046 0.83359 0.46391 0.0
C98 C 0.14293 0.95577 0.47287 0.0
O99 O 0.12497 0.78033 0.36407 0.0
O100 O 0.08151 0.78501 0.47165 0.0
O101 O 0.1543 0.95124 0.31723 0.0
O102 O 0.12078 0.86663 0.26436 0.0
C103 C 0.95558 0.98337 0.45337 0.0
O104 O 0.12249 0.89819 0.49105 0.0
O105 O 0.10957 0.99265 0.43103 0.0
C106 C 0.12487 0.76088 0.42666 0.0
O107 O 0.98939 0.9442 0.49308 0.0
O108 O 0.97836 0.99536 0.39149 0.0
C109 C 0.98338 0.92532 0.25554 0.0
Fe110 Fe 0.03671 0.14498 0.91359 0.0
Fe111 Fe 0.05829 0.06761 0.78425 0.0
O112 O 0.0455 0.14362 0.82318 0.0
Fe113 Fe 0.04084 0.21818 0.77004 0.0
O114 O 0.11832 0.25031 0.80374 0.0
O115 O 0.08676 0.22296 0.91339 0.0
O116 O 0.12156 0.1019 0.9225 0.0
C117 C 0.13901 0.04691 0.89979 0.0
C118 C 0.93946 0.2427 0.8808 0.0
O119 O 0.10656 0.02484 0.85274 0.0
C120 C 0.96207 0.13809 0.7027 0.0
O121 O 0.98504 0.06751 0.9276 0.0
O122 O 0.9733 0.03738 0.82305 0.0
O123 O 0.98124 0.26305 0.83036 0.0
O124 O 0.95073 0.18806 0.91302 0.0
C125 C 0.15011 0.14396 0.70066 0.0
O126 O 1.01166 0.09534 0.70837 0.0
O127 O 0.96184 0.19037 0.73352 0.0
C128 C 0.95284 0.03547 0.8862 0.0
O129 O 0.14405 0.09401 0.74293 0.0
O130 O 0.1013 0.18819 0.69958 0.0
C131 C 0.12525 0.25575 0.86659 0.0
Fe132 Fe 0.55273 0.32587 0.32568 0.0
Fe133 Fe 0.53696 0.36652 0.47456 0.0
O134 O 0.55221 0.38757 0.38521 0.0
Fe135 Fe 0.5663 0.47113 0.35549 0.0
O136 O 0.52678 0.46555 0.27399 0.0
O137 O 0.48021 0.36697 0.28232 0.0
O138 O 0.48499 0.27443 0.3769 0.0
C139 C 0.43944 0.28889 0.4252 0.0
C140 C 0.66547 0.41104 0.27132 0.0
O141 O 0.45046 0.33359 0.46391 0.0
C142 C 0.64293 0.45577 0.47287 0.0
O143 O 0.62498 0.28033 0.36407 0.0
O144 O 0.58151 0.28501 0.47165 0.0
O145 O 0.6543 0.45124 0.31723 0.0
O146 O 0.62078 0.36663 0.26436 0.0
C147 C 0.45558 0.48337 0.45337 0.0
O148 O 0.62249 0.39819 0.49105 0.0
O149 O 0.60957 0.49265 0.43103 0.0
C150 C 0.62487 0.26088 0.42666 0.0
O151 O 0.48939 0.4442 0.49308 0.0
O152 O 0.47836 0.49536 0.39149 0.0
C153 C 0.48338 0.42532 0.25554 0.0
Fe154 Fe 0.53671 0.64498 0.91359 0.0
Fe155 Fe 0.55829 0.56762 0.78425 0.0
O156 O 0.5455 0.64362 0.82318 0.0
Fe157 Fe 0.54084 0.71818 0.77004 0.0
O158 O 0.61832 0.75031 0.80374 0.0
O159 O 0.58676 0.72296 0.91339 0.0
O160 O 0.62156 0.6019 0.9225 0.0
C161 C 0.63901 0.54691 0.89979 0.0
C162 C 0.43946 0.7427 0.8808 0.0
O163 O 0.60656 0.52484 0.85274 0.0
C164 C 0.46207 0.63809 0.7027 0.0
O165 O 0.48504 0.56751 0.9276 0.0
O166 O 0.4733 0.53738 0.82305 0.0
O167 O 0.48124 0.76305 0.83036 0.0
O168 O 0.45073 0.68806 0.91302 0.0
C169 C 0.65011 0.64396 0.70066 0.0
O170 O 0.51166 0.59534 0.70837 0.0
O171 O 0.46184 0.69037 0.73352 0.0
C172 C 0.45284 0.53547 0.8862 0.0
O173 O 0.64405 0.59401 0.74293 0.0
O174 O 0.6013 0.68819 0.69958 0.0
C175 C 0.62525 0.75575 0.86659 0.0
loop_
_geom_bond_atom_site_label_1
_geom_bond_atom_site_label_2
_geom_bond_distance
_geom_bond_site_symmetry_2
_ccdc_geom_bond_type
O0 Cd1 2.300 . S
O0 C7 1.275 . S
Cd1 O0 2.300 . S
Cd1 O9 2.381 . S
Cd1 O10 2.378 . S
O2 Cd3 2.385 1_556 S
O2 C7 1.255 . S
Cd3 O2 2.385 1_554 S
Cd3 O4 2.317 . S
O4 Cd3 2.317 . S
O4 C5 1.232 . S
C5 O4 1.232 . S
C5 O6 1.218 . S
O6 C5 1.218 . S
C7 O0 1.275 . S
C7 O2 1.255 . S
C8 O9 1.258 . S
C8 O10 1.256 . S
O9 Cd1 2.381 . S
O9 C8 1.258 . S
O10 Cd1 2.378 . S
O10 C8 1.256 . S
O11 Cd12 2.300 . S
O11 C18 1.275 . S
Cd12 O11 2.300 . S
Cd12 O20 2.381 . S
Cd12 O21 2.378 . S
O13 Cd14 2.385 . S
O13 C18 1.255 . S
Cd14 O13 2.385 . S
Cd14 O15 2.317 . S
O15 Cd14 2.317 . S
O15 C16 1.232 . S
C16 O15 1.232 . S
C16 O17 1.218 . S
O17 C16 1.218 . S
C18 O11 1.275 . S
C18 O13 1.255 . S
C19 O20 1.258 . S
C19 O21 1.256 . S
O20 Cd12 2.381 . S
O20 C19 1.258 . S
O21 Cd12 2.378 . S
O21 C19 1.256 . S
O22 Cd23 2.300 . S
O22 C29 1.275 . S
Cd23 O22 2.300 . S
Cd23 O31 2.381 . S
Cd23 O32 2.378 . S
O24 Cd25 2.385 . S
O24 C29 1.255 1_554 S
Cd25 O24 2.385 . S
Cd25 O26 2.317 . S
O26 Cd25 2.317 . S
O26 C27 1.232 . S
C27 O26 1.232 . S
C27 O28 1.218 . S
O28 C27 1.218 . S
C29 O22 1.275 . S
C29 O24 1.255 1_556 S
C30 O31 1.258 . S
C30 O32 1.256 . S
O31 Cd23 2.381 . S
O31 C30 1.258 . S
O32 Cd23 2.378 . S
O32 C30 1.256 . S
O33 Cd34 2.300 . S
O33 C40 1.275 . S
Cd34 O33 2.300 . S
Cd34 O42 2.381 . S
Cd34 O43 2.378 . S
O35 Cd36 2.385 . S
O35 C40 1.255 . S
Cd36 O35 2.385 . S
Cd36 O37 2.317 . S
O37 Cd36 2.317 . S
O37 C38 1.232 . S
C38 O37 1.232 . S
C38 O39 1.218 . S
O39 C38 1.218 . S
C40 O33 1.275 . S
C40 O35 1.255 . S
C41 O42 1.258 . S
C41 O43 1.256 . S
O42 Cd34 2.381 . S
O42 C41 1.258 . S
O43 Cd34 2.378 . S
O43 C41 1.256 . S
O44 Cd45 2.300 . S
O44 C51 1.275 . S
Cd45 O44 2.300 . S
Cd45 O53 2.381 . S
Cd45 O54 2.378 . S
O46 Cd47 2.385 1_556 S
O46 C51 1.255 . S
Cd47 O46 2.385 1_554 S
Cd47 O48 2.317 . S
O48 Cd47 2.317 . S
O48 C49 1.232 . S
C49 O48 1.232 . S
C49 O50 1.218 . S
O50 C49 1.218 . S
C51 O44 1.275 . S
C51 O46 1.255 . S
C52 O53 1.258 . S
C52 O54 1.256 . S
O53 Cd45 2.381 . S
O53 C52 1.258 . S
O54 Cd45 2.378 . S
O54 C52 1.256 . S
O55 Cd56 2.300 . S
O55 C62 1.275 . S
Cd56 O55 2.300 . S
Cd56 O64 2.381 . S
Cd56 O65 2.378 . S
O57 Cd58 2.385 1_545 S
O57 C62 1.255 . S
Cd58 O57 2.385 1_565 S
Cd58 O59 2.317 . S
O59 Cd58 2.317 . S
O59 C60 1.232 . S
C60 O59 1.232 . S
C60 O61 1.218 . S
O61 C60 1.218 . S
C62 O55 1.275 . S
C62 O57 1.255 . S
C63 O64 1.258 . S
C63 O65 1.256 . S
O64 Cd56 2.381 . S
O64 C63 1.258 . S
O65 Cd56 2.378 . S
O65 C63 1.256 . S
O66 Cd67 2.300 . S
O66 C73 1.275 . S
Cd67 O66 2.300 . S
Cd67 O75 2.381 . S
Cd67 O76 2.378 . S
O68 Cd69 2.383 1_565 S
O68 C73 1.257 1_554 S
Cd69 O68 2.383 1_545 S
Cd69 O70 2.317 1_545 S
O70 Cd69 2.317 1_565 S
O70 C71 1.232 . S
C71 O70 1.232 . S
C71 O72 1.218 1_565 S
O72 C71 1.218 1_545 S
C73 O66 1.275 . S
C73 O68 1.257 1_556 S
C74 O75 1.258 . S
C74 O76 1.256 . S
O75 Cd67 2.381 . S
O75 C74 1.258 . S
O76 Cd67 2.378 . S
O76 C74 1.256 . S
O77 Cd78 2.300 . S
O77 C84 1.275 . S
Cd78 O77 2.300 . S
Cd78 O86 2.381 . S
Cd78 O87 2.378 . S
O79 Cd80 2.385 1_545 S
O79 C84 1.255 . S
Cd80 O79 2.385 1_565 S
Cd80 O81 2.317 1_565 S
O81 Cd80 2.317 1_545 S
O81 C82 1.232 . S
C82 O81 1.232 . S
C82 O83 1.218 . S
O83 C82 1.218 . S
C84 O77 1.275 . S
C84 O79 1.255 . S
C85 O86 1.258 . S
C85 O87 1.256 . S
O86 Cd78 2.381 . S
O86 C85 1.258 . S
O87 Cd78 2.378 . S
O87 C85 1.256 . S
Fe88 O90 1.918 . S
Fe88 O93 1.997 1_455 S
Fe88 O94 2.002 1_455 S
Fe88 O99 1.976 . S
Fe88 O102 1.996 . S
Fe89 O90 1.918 . S
Fe89 O97 1.997 1_455 S
Fe89 O100 1.996 . S
Fe89 O104 1.976 . S
Fe89 O107 2.002 1_455 S
O90 Fe88 1.918 . S
O90 Fe89 1.918 . S
O90 Fe91 1.918 . S
Fe91 O90 1.918 . S
Fe91 O92 2.002 1_455 S
Fe91 O101 1.976 . S
Fe91 O105 1.996 1_565 S
Fe91 O108 1.997 1_465 S
O92 Fe91 2.002 1_655 S
O92 C109 1.295 . S
O93 Fe88 1.997 1_655 S
O93 C109 1.235 . S
O94 Fe88 2.002 1_655 S
O94 C95 1.295 . S
C95 O94 1.295 . S
C95 O97 1.235 . S
C96 O101 1.287 . S
C96 O102 1.255 . S
O97 Fe89 1.997 1_655 S
O97 C95 1.235 . S
C98 O104 1.287 . S
C98 O105 1.255 1_565 S
O99 Fe88 1.976 . S
O99 C106 1.287 . S
O100 Fe89 1.996 . S
O100 C106 1.255 . S
O101 Fe91 1.976 . S
O101 C96 1.287 . S
O102 Fe88 1.996 . S
O102 C96 1.255 . S
C103 O107 1.295 . S
C103 O108 1.235 1_565 S
O104 Fe89 1.976 . S
O104 C98 1.287 . S
O105 Fe91 1.996 1_545 S
O105 C98 1.255 1_545 S
C106 O99 1.287 . S
C106 O100 1.255 . S
O107 Fe89 2.002 1_655 S
O107 C103 1.295 . S
O108 Fe91 1.997 1_645 S
O108 C103 1.235 1_545 S
C109 O92 1.295 . S
C109 O93 1.235 . S
Fe110 O112 1.918 . S
Fe110 O115 1.997 . S
Fe110 O116 2.002 . S
Fe110 O121 1.976 1_455 S
Fe110 O124 1.996 1_455 S
Fe111 O112 1.918 . S
Fe111 O119 1.996 1_545 S
Fe111 O122 1.996 1_445 S
Fe111 O126 1.976 1_455 S
Fe111 O129 2.002 . S
O112 Fe110 1.918 . S
O112 Fe111 1.918 . S
O112 Fe113 1.918 . S
Fe113 O112 1.918 . S
Fe113 O114 2.002 . S
Fe113 O123 1.976 1_455 S
Fe113 O127 1.996 1_455 S
Fe113 O130 1.997 . S
O114 Fe113 2.002 . S
O114 C131 1.295 . S
O115 Fe110 1.997 . S
O115 C131 1.235 . S
O116 Fe110 2.002 . S
O116 C117 1.295 . S
C117 O116 1.295 . S
C117 O119 1.235 1_545 S
C118 O123 1.287 . S
C118 O124 1.255 . S
O119 Fe111 1.996 1_565 S
O119 C117 1.235 1_565 S
C120 O126 1.287 . S
C120 O127 1.255 . S
O121 Fe110 1.976 1_655 S
O121 C128 1.287 . S
O122 Fe111 1.996 1_665 S
O122 C128 1.255 1_565 S
O123 Fe113 1.976 1_655 S
O123 C118 1.287 . S
O124 Fe110 1.996 1_655 S
O124 C118 1.255 . S
C125 O129 1.295 . S
C125 O130 1.235 . S
O126 Fe111 1.976 1_655 S
O126 C120 1.287 . S
O127 Fe113 1.996 1_655 S
O127 C120 1.255 . S
C128 O121 1.287 . S
C128 O122 1.255 1_545 S
O129 Fe111 2.002 . S
O129 C125 1.295 . S
O130 Fe113 1.997 . S
O130 C125 1.235 . S
C131 O114 1.295 . S
C131 O115 1.235 . S
Fe132 O134 1.918 . S
Fe132 O137 1.997 . S
Fe132 O138 2.002 . S
Fe132 O143 1.976 . S
Fe132 O146 1.996 . S
Fe133 O134 1.918 . S
Fe133 O141 1.997 . S
Fe133 O144 1.996 . S
Fe133 O148 1.976 . S
Fe133 O151 2.002 . S
O134 Fe132 1.918 . S
O134 Fe133 1.918 . S
O134 Fe135 1.918 . S
Fe135 O134 1.918 . S
Fe135 O136 2.002 . S
Fe135 O145 1.976 . S
Fe135 O149 1.996 . S
Fe135 O152 1.997 . S
O136 Fe135 2.002 . S
O136 C153 1.295 . S
O137 Fe132 1.997 . S
O137 C153 1.235 . S
O138 Fe132 2.002 . S
O138 C139 1.295 . S
C139 O138 1.295 . S
C139 O141 1.235 . S
C140 O145 1.287 . S
C140 O146 1.255 . S
O141 Fe133 1.997 . S
O141 C139 1.235 . S
C142 O148 1.287 . S
C142 O149 1.255 . S
O143 Fe132 1.976 . S
O143 C150 1.287 . S
O144 Fe133 1.996 . S
O144 C150 1.255 . S
O145 Fe135 1.976 . S
O145 C140 1.287 . S
O146 Fe132 1.996 . S
O146 C140 1.255 . S
C147 O151 1.295 . S
C147 O152 1.235 . S
O148 Fe133 1.976 . S
O148 C142 1.287 . S
O149 Fe135 1.996 . S
O149 C142 1.255 . S
C150 O143 1.287 . S
C150 O144 1.255 . S
O151 Fe133 2.002 . S
O151 C147 1.295 . S
O152 Fe135 1.997 . S
O152 C147 1.235 . S
C153 O136 1.295 . S
C153 O137 1.235 . S
Fe154 O156 1.918 . S
Fe154 O159 1.997 . S
Fe154 O160 2.002 . S
Fe154 O165 1.976 . S
Fe154 O168 1.996 . S
Fe155 O156 1.918 . S
Fe155 O163 1.997 . S
Fe155 O166 1.996 . S
Fe155 O170 1.976 . S
Fe155 O173 2.002 . S
O156 Fe154 1.918 . S
O156 Fe155 1.918 . S
O156 Fe157 1.918 . S
Fe157 O156 1.918 . S
Fe157 O158 2.002 . S
Fe157 O167 1.976 . S
Fe157 O171 1.996 . S
Fe157 O174 1.997 . S
O158 Fe157 2.002 . S
O158 C175 1.295 . S
O159 Fe154 1.997 . S
O159 C175 1.235 . S
O160 Fe154 2.002 . S
O160 C161 1.295 . S
C161 O160 1.295 . S
C161 O163 1.235 . S
C162 O167 1.287 . S
C162 O168 1.255 . S
O163 Fe155 1.997 . S
O163 C161 1.235 . S
C164 O170 1.287 . S
C164 O171 1.255 . S
O165 Fe154 1.976 . S
O165 C172 1.287 . S
O166 Fe155 1.996 . S
O166 C172 1.255 . S
O167 Fe157 1.976 . S
O167 C162 1.287 . S
O168 Fe154 1.996 . S
O168 C162 1.255 . S
C169 O173 1.295 . S
C169 O174 1.235 . S
O170 Fe155 1.976 . S
O170 C164 1.287 . S
O171 Fe157 1.996 . S
O171 C164 1.255 . S
C172 O165 1.287 . S
C172 O166 1.255 . S
O173 Fe155 2.002 . S
O173 C169 1.295 . S
O174 Fe157 1.997 . S
O174 C169 1.235 . S
C175 O158 1.295 . S
C175 O159 1.235 . S
C8 C131 1.795 . S
C95 C19 1.562 . S
C118 C30 1.740 . S
C106 C41 1.703 . S
C175 C52 1.795 . S
C139 C63 1.562 . S
C74 C162 1.740 . S
C150 C85 1.703 . S
C7 C172 1.911 . S
C142 C16 1.762 . S
C29 C161 1.886 . S
C40 C147 1.737 . S
C128 C51 1.911 1_545 S
C60 C98 1.762 . S
C117 C73 1.886 1_545 S
C103 C84 1.736 1_565 S
C153 C5 1.113 . S
C169 C18 1.661 . S
C27 C140 1.725 . S
C164 C38 1.821 . S
C109 C49 1.113 . S
C62 C125 1.661 . S
C71 C96 1.725 . S
C82 C120 1.821 . S
