# Generated by pormake.
# Topology zzz, (3,6)-cn, num edge types: 1
# Building blocks:
#     Node 0, Type 0, BuildingBlock: OLANEW_clean_sbu_2, # of connection points: 3
#     Node 1, Type 0, BuildingBlock: OLANEW_clean_sbu_2, # of connection points: 3
#     Node 2, Type 0, BuildingBlock: OLANEW_clean_sbu_2, # of connection points: 3
#     Node 3, Type 0, BuildingBlock: OLANEW_clean_sbu_2, # of connection points: 3
#     Node 4, Type 0, BuildingBlock: OLANEW_clean_sbu_2, # of connection points: 3
#     Node 5, Type 0, BuildingBlock: OLANEW_clean_sbu_2, # of connection points: 3
#     Node 6, Type 0, BuildingBlock: OLANEW_clean_sbu_2, # of connection points: 3
#     Node 7, Type 0, BuildingBlock: OLANEW_clean_sbu_2, # of connection points: 3
#     Node 8, Type 1, BuildingBlock: CIFDUS_clean_sbu_1, # of connection points: 6
#     Node 9, Type 1, BuildingBlock: CIFDUS_clean_sbu_1, # of connection points: 6
#     Node 10, Type 1, BuildingBlock: CIFDUS_clean_sbu_1, # of connection points: 6
#     Node 11, Type 1, BuildingBlock: CIFDUS_clean_sbu_1, # of connection points: 6
#     Edge 12, Type (0, 1), None
#     Edge 13, Type (0, 1), None
#     Edge 14, Type (0, 1), None
#     Edge 15, Type (0, 1), None
#     Edge 16, Type (0, 1), None
#     Edge 17, Type (0, 1), None
#     Edge 18, Type (0, 1), None
#     Edge 19, Type (0, 1), None
#     Edge 20, Type (0, 1), None
#     Edge 21, Type (0, 1), None
#     Edge 22, Type (0, 1), None
#     Edge 23, Type (0, 1), None
#     Edge 24, Type (0, 1), None
#     Edge 25, Type (0, 1), None
#     Edge 26, Type (0, 1), None
#     Edge 27, Type (0, 1), None
#     Edge 28, Type (0, 1), None
#     Edge 29, Type (0, 1), None
#     Edge 30, Type (0, 1), None
#     Edge 31, Type (0, 1), None
#     Edge 32, Type (0, 1), None
#     Edge 33, Type (0, 1), None
#     Edge 34, Type (0, 1), None
#     Edge 35, Type (0, 1), None
# Relax obj value: 0.108
# Max RMSD: 0.168
# Mean RMSD: 0.109
data_MOF--net-zzz--node1-OLANEW_clean_sbu_2--node2-CIFDUS_clean_sbu_1--edge1-none
_symmetry_space_group_name_H-M    P1
_symmetry_Int_Tables_number       1
_symmetry_cell_setting            triclinic
loop_
_symmetry_equiv_pos_as_xyz
'x, y, z'
_cell_length_a     25.959046
_cell_length_b     25.960434
_cell_length_c     8.8883864
_cell_angle_alpha  89.98867
_cell_angle_beta   89.999509
_cell_angle_gamma 90.013418
loop_
_atom_site_label
_atom_site_type_symbol
_atom_site_fract_x
_atom_site_fract_y
_atom_site_fract_z
_atom_type_partial_charge
O0 O 0.78978 0.53664 0.80511 0.0
Cd1 Cd 0.71417 0.57173 0.92667 0.0
O2 O 0.83886 0.55738 -0.00311 0.0
Cd3 Cd 0.90946 0.5689 0.12874 0.0
O4 O 0.96908 0.61242 0.24932 0.0
C5 C -0.00894 0.60266 0.37361 0.0
O6 O 0.02603 0.63477 0.42476 0.0
C7 C 0.83394 0.53738 0.86688 0.0
C8 C 0.63501 0.49997 0.94025 0.0
O9 O 0.63323 0.53607 0.84218 0.0
O10 O 0.6743 0.49725 0.02686 0.0
O11 O 0.96194 0.79135 0.8052 0.0
Cd12 Cd 0.92688 0.7157 0.92677 0.0
O13 O 0.94119 0.84042 -0.00303 0.0
Cd14 Cd 0.92966 0.91101 0.12879 0.0
O15 O 0.88615 0.97062 0.24935 0.0
C16 C 0.89591 -0.00739 0.37362 0.0
O17 O 0.8638 0.02756 0.42476 0.0
C18 C 0.96118 0.83551 0.86695 0.0
C19 C -0.00135 0.63659 0.94021 0.0
O20 O 0.96254 0.6348 0.84221 0.0
O21 O 0.00138 0.67588 0.02681 0.0
O22 O 0.70719 0.96351 0.80505 0.0
Cd23 Cd 0.7828 0.92841 0.92661 0.0
O24 O 0.65811 0.94279 -0.00313 0.0
Cd25 Cd 0.58751 0.93128 0.12874 0.0
O26 O 0.52787 0.88778 0.24935 0.0
C27 C 0.50589 0.89755 0.37363 0.0
O28 O 0.47091 0.86545 0.4248 0.0
C29 C 0.66303 0.96278 0.86683 0.0
C30 C 0.86195 0.00018 0.9402 0.0
O31 O 0.86374 0.96409 0.84213 0.0
O32 O 0.82266 0.00287 0.02682 0.0
O33 O 0.53502 0.70883 0.8051 0.0
Cd34 Cd 0.57008 0.78446 0.92671 0.0
O35 O 0.55578 0.65975 -0.00314 0.0
Cd36 Cd 0.56734 0.58914 0.1287 0.0
O37 O 0.61087 0.52956 0.24935 0.0
C38 C 0.6011 0.50758 0.37366 0.0
O39 O 0.63321 0.47263 0.42488 0.0
C40 C 0.53578 0.66467 0.86684 0.0
C41 C 0.49832 0.86358 0.94023 0.0
O42 O 0.53442 0.86538 0.84218 0.0
O43 O 0.4956 0.82429 0.02686 0.0
O44 O 0.20461 0.46194 0.71973 0.0
Cd45 Cd 0.28083 0.42928 0.596 0.0
O46 O 0.15538 0.44038 0.52898 0.0
Cd47 Cd 0.08469 0.42777 0.39825 0.0
O48 O 0.0252 0.38405 0.27759 0.0
C49 C 0.00315 0.39384 0.15342 0.0
O50 O 0.96826 0.36167 0.10211 0.0
C51 C 0.16028 0.46026 0.65916 0.0
C52 C 0.35879 0.50249 0.58653 0.0
O53 O 0.36114 0.46577 0.68251 0.0
O54 O 0.31938 0.50522 0.50035 0.0
O55 O 0.03663 0.20619 0.71966 0.0
Cd56 Cd 0.06928 0.28245 0.59597 0.0
O57 O 0.05819 0.15699 0.5289 0.0
Cd58 Cd 0.07079 0.08631 0.39819 0.0
O59 O 0.1145 0.02683 0.27754 0.0
C60 C 0.10471 0.00477 0.15339 0.0
O61 O 0.13688 0.9699 0.1021 0.0
C62 C 0.03831 0.16187 0.65909 0.0
C63 C -0.00393 0.36038 0.58664 0.0
O64 O 0.03281 0.36274 0.68257 0.0
O65 O -0.00667 0.32098 0.50046 0.0
O66 O 0.29238 0.03828 0.71975 0.0
Cd67 Cd 0.21614 0.07094 0.59605 0.0
O68 O 0.3416 0.05982 0.52895 0.0
Cd69 Cd 0.41229 0.07241 0.39819 0.0
O70 O 0.4718 0.1161 0.2775 0.0
C71 C 0.49385 0.10631 0.15334 0.0
O72 O 0.52875 0.13848 0.10202 0.0
C73 C 0.3367 0.03994 0.65916 0.0
C74 C 0.1382 -0.00227 0.58662 0.0
O75 O 0.13584 0.03443 0.6826 0.0
O76 O 0.1776 -0.00499 0.50043 0.0
O77 O 0.46036 0.29399 0.71968 0.0
Cd78 Cd 0.42771 0.21775 0.59595 0.0
O79 O 0.43879 0.34321 0.52894 0.0
Cd80 Cd 0.42615 0.4139 0.39821 0.0
O81 O 0.38243 0.47336 0.27747 0.0
C82 C 0.39222 0.49541 0.15328 0.0
O83 O 0.36005 0.53027 0.10191 0.0
C84 C 0.45867 0.33832 0.65913 0.0
C85 C 0.50091 0.13981 0.58655 0.0
O86 O 0.46419 0.13745 0.68253 0.0
O87 O 0.50364 0.17922 0.50034 0.0
O88 O 0.05484 -0.00152 0.93368 0.0
Mn89 Mn 0.00021 -0.00136 0.76369 0.0
O90 O 0.02741 0.05107 0.11955 0.0
Mn91 Mn 0.97376 0.08106 0.01122 0.0
O92 O 0.94562 -0.00122 0.59363 0.0
O93 O 0.05105 0.9667 0.62661 0.0
Mn94 Mn 0.02679 0.91617 0.51627 0.0
O95 O 0.97605 0.92548 0.8333 0.0
O96 O 0.97317 0.94621 0.4078 0.0
O97 O 0.02428 0.0718 0.69388 0.0
O98 O -0.00477 0.12841 0.86794 0.0
O99 O 0.09627 0.92582 0.46493 0.0
O100 O 0.00515 0.86884 0.65942 0.0
C101 C 0.90539 0.03518 0.96391 0.0
C102 C 0.05943 0.01876 0.06472 0.0
C103 C 0.94111 0.97852 0.46254 0.0
C104 C 0.09506 0.96227 0.56377 0.0
C105 C 0.98231 0.87938 0.78315 0.0
C106 C 0.01792 0.1179 0.74395 0.0
O107 O 0.94938 0.03057 0.90095 0.0
O108 O 0.90433 0.07158 0.06293 0.0
O109 O 0.57307 0.97766 0.83324 0.0
Mn110 Mn 0.49992 0.00183 0.76367 0.0
O111 O 0.62973 0.00676 0.65932 0.0
Mn112 Mn 0.58241 0.02841 0.51619 0.0
O113 O 0.42677 0.02591 0.6939 0.0
O114 O 0.46796 0.951 0.90096 0.0
Mn115 Mn 0.41748 0.97538 0.01126 0.0
O116 O 0.50012 0.05645 0.93365 0.0
O117 O 0.37014 -0.00314 0.868 0.0
O118 O 0.49975 0.94725 0.59362 0.0
O119 O 0.55233 0.9748 0.40775 0.0
O120 O 0.42693 0.90595 0.06298 0.0
O121 O 0.44751 0.02902 0.11955 0.0
C122 C 0.53634 0.09668 0.5637 0.0
C123 C 0.61917 0.98392 0.78306 0.0
C124 C 0.38067 0.01955 0.744 0.0
C125 C 0.46333 0.90702 0.96393 0.0
C126 C 0.47984 0.06103 0.06469 0.0
C127 C 0.52 0.94275 0.46252 0.0
O128 O 0.53189 0.05267 0.62656 0.0
O129 O 0.57279 0.09789 0.46484 0.0
O130 O 0.52092 0.5747 0.83324 0.0
Mn131 Mn 0.49677 0.50154 0.76366 0.0
O132 O 0.49184 0.63135 0.65929 0.0
Mn133 Mn 0.47021 0.58402 0.51615 0.0
O134 O 0.4727 0.42839 0.69388 0.0
O135 O 0.54758 0.4696 0.90099 0.0
Mn136 Mn 0.52318 0.4191 0.01127 0.0
O137 O 0.44211 0.5017 0.9336 0.0
O138 O 0.50172 0.37177 0.868 0.0
O139 O 0.55137 0.50141 0.59364 0.0
O140 O 0.52384 0.55398 0.40775 0.0
O141 O 0.59261 0.42858 0.06302 0.0
O142 O 0.46953 0.4491 0.11953 0.0
C143 C 0.40194 0.53793 0.56365 0.0
C144 C 0.51466 0.6208 0.78305 0.0
C145 C 0.47905 0.38229 0.74398 0.0
C146 C 0.59156 0.46498 0.96397 0.0
C147 C 0.43752 0.48142 0.06465 0.0
C148 C 0.55589 0.52167 0.46254 0.0
O149 O 0.44594 0.53349 0.62651 0.0
O150 O 0.40073 0.57438 0.46478 0.0
O151 O -0.00313 0.44372 0.9337 0.0
Mn152 Mn -0.00295 0.49835 0.7637 0.0
O153 O 0.04948 0.47114 0.11957 0.0
Mn154 Mn 0.07951 0.52479 0.01124 0.0
O155 O -0.00278 0.55295 0.59363 0.0
O156 O 0.96509 0.44752 0.62662 0.0
Mn157 Mn 0.91457 0.47178 0.51626 0.0
O158 O 0.92391 0.52251 0.83328 0.0
O159 O 0.94463 0.5254 0.40779 0.0
O160 O 0.07021 0.47429 0.69392 0.0
O161 O 0.12684 0.50333 0.86798 0.0
O162 O 0.92418 0.4023 0.46495 0.0
O163 O 0.86724 0.49342 0.65939 0.0
C164 C 0.03364 0.59315 0.96391 0.0
C165 C 0.01715 0.43913 0.06474 0.0
C166 C 0.97696 0.55745 0.46253 0.0
C167 C 0.96064 0.40351 0.56379 0.0
C168 C 0.8778 0.51625 0.78312 0.0
C169 C 0.11631 0.48065 0.744 0.0
O170 O 0.02901 0.54918 0.90095 0.0
O171 O 0.07005 0.59422 0.06293 0.0
loop_
_geom_bond_atom_site_label_1
_geom_bond_atom_site_label_2
_geom_bond_distance
_geom_bond_site_symmetry_2
_ccdc_geom_bond_type
O0 Cd1 2.300 1_556 S
O0 C7 1.275 . S
Cd1 O0 2.300 1_554 S
Cd1 O9 2.381 1_554 S
Cd1 O10 2.378 . S
O2 Cd3 2.385 . S
O2 C7 1.255 1_554 S
Cd3 O2 2.385 . S
Cd3 O4 2.317 . S
O4 Cd3 2.317 . S
O4 C5 1.232 . S
C5 O4 1.232 . S
C5 O6 1.218 . S
O6 C5 1.218 . S
C7 O0 1.275 . S
C7 O2 1.255 1_556 S
C8 O9 1.258 . S
C8 O10 1.256 1_556 S
O9 Cd1 2.381 1_556 S
O9 C8 1.258 . S
O10 Cd1 2.378 . S
O10 C8 1.256 1_554 S
O11 Cd12 2.312 1_556 S
O11 C18 1.275 . S
Cd12 O11 2.312 1_554 S
Cd12 O20 2.394 1_554 S
Cd12 O21 2.377 1_655 S
O13 Cd14 2.385 . S
O13 C18 1.255 1_454 S
Cd14 O13 2.385 . S
Cd14 O15 2.317 . S
O15 Cd14 2.317 . S
O15 C16 1.232 1_455 S
C16 O15 1.232 1_655 S
C16 O17 1.218 1_655 S
O17 C16 1.218 1_455 S
C18 O11 1.275 . S
C18 O13 1.255 1_656 S
C19 O20 1.258 . S
C19 O21 1.256 1_656 S
O20 Cd12 2.394 1_556 S
O20 C19 1.258 . S
O21 Cd12 2.377 1_455 S
O21 C19 1.256 1_454 S
O22 Cd23 2.300 1_566 S
O22 C29 1.275 . S
Cd23 O22 2.300 1_544 S
Cd23 O31 2.381 1_544 S
Cd23 O32 2.378 . S
O24 Cd25 2.385 . S
O24 C29 1.255 1_544 S
Cd25 O24 2.385 . S
Cd25 O26 2.317 . S
O26 Cd25 2.317 . S
O26 C27 1.232 1_545 S
C27 O26 1.232 1_565 S
C27 O28 1.218 1_565 S
O28 C27 1.218 1_545 S
C29 O22 1.275 . S
C29 O24 1.255 1_566 S
C30 O31 1.258 . S
C30 O32 1.256 1_566 S
O31 Cd23 2.381 1_566 S
O31 C30 1.258 . S
O32 Cd23 2.378 . S
O32 C30 1.256 1_544 S
O33 Cd34 2.300 1_556 S
O33 C40 1.275 . S
Cd34 O33 2.300 1_554 S
Cd34 O42 2.381 1_554 S
Cd34 O43 2.378 . S
O35 Cd36 2.385 . S
O35 C40 1.255 1_554 S
Cd36 O35 2.385 . S
Cd36 O37 2.317 . S
O37 Cd36 2.317 . S
O37 C38 1.232 . S
C38 O37 1.232 . S
C38 O39 1.218 . S
O39 C38 1.218 . S
C40 O33 1.275 . S
C40 O35 1.255 1_556 S
C41 O42 1.258 . S
C41 O43 1.256 1_556 S
O42 Cd34 2.381 1_556 S
O42 C41 1.258 . S
O43 Cd34 2.378 . S
O43 C41 1.256 1_554 S
O44 Cd45 2.300 . S
O44 C51 1.275 . S
Cd45 O44 2.300 . S
Cd45 O53 2.381 . S
Cd45 O54 2.378 . S
O46 Cd47 2.385 . S
O46 C51 1.255 . S
Cd47 O46 2.385 . S
Cd47 O48 2.317 . S
O48 Cd47 2.317 . S
O48 C49 1.232 . S
C49 O48 1.232 . S
C49 O50 1.218 . S
O50 C49 1.218 . S
C51 O44 1.275 . S
C51 O46 1.255 . S
C52 O53 1.258 . S
C52 O54 1.256 . S
O53 Cd45 2.381 . S
O53 C52 1.258 . S
O54 Cd45 2.378 . S
O54 C52 1.256 . S
O55 Cd56 2.300 . S
O55 C62 1.275 . S
Cd56 O55 2.300 . S
Cd56 O64 2.381 . S
Cd56 O65 2.378 . S
O57 Cd58 2.385 . S
O57 C62 1.255 . S
Cd58 O57 2.385 . S
Cd58 O59 2.317 . S
O59 Cd58 2.317 . S
O59 C60 1.232 . S
C60 O59 1.232 . S
C60 O61 1.218 . S
O61 C60 1.218 . S
C62 O55 1.275 . S
C62 O57 1.255 . S
C63 O64 1.258 . S
C63 O65 1.256 . S
O64 Cd56 2.381 . S
O64 C63 1.258 . S
O65 Cd56 2.378 . S
O65 C63 1.256 . S
O66 Cd67 2.300 . S
O66 C73 1.275 . S
Cd67 O66 2.300 . S
Cd67 O75 2.381 . S
Cd67 O76 2.378 . S
O68 Cd69 2.385 . S
O68 C73 1.255 . S
Cd69 O68 2.385 . S
Cd69 O70 2.317 . S
O70 Cd69 2.317 . S
O70 C71 1.232 . S
C71 O70 1.232 . S
C71 O72 1.218 . S
O72 C71 1.218 . S
C73 O66 1.275 . S
C73 O68 1.255 . S
C74 O75 1.258 . S
C74 O76 1.256 . S
O75 Cd67 2.381 . S
O75 C74 1.258 . S
O76 Cd67 2.378 . S
O76 C74 1.256 . S
O77 Cd78 2.300 . S
O77 C84 1.275 . S
Cd78 O77 2.300 . S
Cd78 O86 2.381 . S
Cd78 O87 2.378 . S
O79 Cd80 2.385 . S
O79 C84 1.255 . S
Cd80 O79 2.385 . S
Cd80 O81 2.317 . S
O81 Cd80 2.317 . S
O81 C82 1.232 . S
C82 O81 1.232 . S
C82 O83 1.218 . S
O83 C82 1.218 . S
C84 O77 1.275 . S
C84 O79 1.255 . S
C85 O86 1.258 . S
C85 O87 1.256 . S
O86 Cd78 2.381 . S
O86 C85 1.258 . S
O87 Cd78 2.378 . S
O87 C85 1.256 . S
O88 Mn89 2.163 . S
O88 C102 1.244 1_556 S
Mn89 O88 2.163 . S
Mn89 O92 2.160 1_445 S
Mn89 O93 2.221 1_545 S
Mn89 O95 2.163 1_445 S
Mn89 O97 2.160 . S
Mn89 O107 2.221 1_455 S
O90 Mn91 2.087 1_554 S
O90 C102 1.256 1_655 S
Mn91 O90 2.087 1_556 S
Mn91 O98 2.089 . S
Mn91 O107 2.290 . S
Mn91 O108 2.251 1_556 S
O92 Mn89 2.160 1_665 S
O92 C103 1.239 . S
O93 Mn89 2.221 1_565 S
O93 Mn94 2.290 . S
O93 C104 1.278 . S
Mn94 O93 2.290 . S
Mn94 O96 2.089 . S
Mn94 O99 2.251 . S
Mn94 O100 2.087 . S
O95 Mn89 2.163 1_665 S
O95 C105 1.244 1_655 S
O96 Mn94 2.089 . S
O96 C103 1.256 1_455 S
O97 Mn89 2.160 . S
O97 C106 1.241 . S
O98 Mn91 2.089 . S
O98 C106 1.251 1_655 S
O99 Mn94 2.251 . S
O99 C104 1.241 . S
O100 Mn94 2.087 . S
O100 C105 1.256 . S
C101 O107 1.278 . S
C101 O108 1.241 1_556 S
C102 O88 1.244 1_554 S
C102 O90 1.256 1_455 S
C103 O92 1.239 . S
C103 O96 1.256 1_655 S
C104 O93 1.278 . S
C104 O99 1.241 . S
C105 O95 1.244 1_455 S
C105 O100 1.256 . S
C106 O97 1.241 . S
C106 O98 1.251 1_455 S
O107 Mn89 2.221 1_655 S
O107 Mn91 2.290 . S
O107 C101 1.278 . S
O108 Mn91 2.251 1_554 S
O108 C101 1.241 1_554 S
O109 Mn110 2.163 1_565 S
O109 C123 1.244 1_565 S
Mn110 O109 2.163 1_545 S
Mn110 O113 2.160 . S
Mn110 O114 2.221 1_545 S
Mn110 O116 2.163 . S
Mn110 O118 2.160 1_545 S
Mn110 O128 2.221 . S
O111 Mn112 2.087 . S
O111 C123 1.256 . S
Mn112 O111 2.087 . S
Mn112 O119 2.089 . S
Mn112 O128 2.290 . S
Mn112 O129 2.251 . S
O113 Mn110 2.160 . S
O113 C124 1.239 . S
O114 Mn110 2.221 1_565 S
O114 Mn115 2.290 . S
O114 C125 1.278 . S
Mn115 O114 2.290 . S
Mn115 O117 2.089 . S
Mn115 O120 2.251 1_556 S
Mn115 O121 2.087 1_556 S
O116 Mn110 2.163 . S
O116 C126 1.244 1_556 S
O117 Mn115 2.089 . S
O117 C124 1.256 1_565 S
O118 Mn110 2.160 1_565 S
O118 C127 1.239 . S
O119 Mn112 2.089 . S
O119 C127 1.256 1_545 S
O120 Mn115 2.251 1_554 S
O120 C125 1.241 1_554 S
O121 Mn115 2.087 1_554 S
O121 C126 1.256 1_565 S
C122 O128 1.278 . S
C122 O129 1.241 . S
C123 O109 1.244 1_545 S
C123 O111 1.256 . S
C124 O113 1.239 . S
C124 O117 1.256 1_545 S
C125 O114 1.278 . S
C125 O120 1.241 1_556 S
C126 O116 1.244 1_554 S
C126 O121 1.256 1_545 S
C127 O118 1.239 . S
C127 O119 1.256 1_565 S
O128 Mn110 2.221 . S
O128 Mn112 2.290 . S
O128 C122 1.278 . S
O129 Mn112 2.251 . S
O129 C122 1.241 . S
O130 Mn131 2.163 . S
O130 C144 1.244 . S
Mn131 O130 2.163 . S
Mn131 O134 2.160 . S
Mn131 O135 2.221 . S
Mn131 O137 2.163 . S
Mn131 O139 2.160 . S
Mn131 O149 2.221 . S
O132 Mn133 2.087 . S
O132 C144 1.256 . S
Mn133 O132 2.087 . S
Mn133 O140 2.089 . S
Mn133 O149 2.290 . S
Mn133 O150 2.251 . S
O134 Mn131 2.160 . S
O134 C145 1.239 . S
O135 Mn131 2.221 . S
O135 Mn136 2.290 . S
O135 C146 1.278 . S
Mn136 O135 2.290 . S
Mn136 O138 2.089 . S
Mn136 O141 2.251 1_556 S
Mn136 O142 2.087 1_556 S
O137 Mn131 2.163 . S
O137 C147 1.244 1_556 S
O138 Mn136 2.089 . S
O138 C145 1.256 . S
O139 Mn131 2.160 . S
O139 C148 1.239 . S
O140 Mn133 2.089 . S
O140 C148 1.256 . S
O141 Mn136 2.251 1_554 S
O141 C146 1.241 1_554 S
O142 Mn136 2.087 1_554 S
O142 C147 1.256 . S
C143 O149 1.278 . S
C143 O150 1.241 . S
C144 O130 1.244 . S
C144 O132 1.256 . S
C145 O134 1.239 . S
C145 O138 1.256 . S
C146 O135 1.278 . S
C146 O141 1.241 1_556 S
C147 O137 1.244 1_554 S
C147 O142 1.256 . S
C148 O139 1.239 . S
C148 O140 1.256 . S
O149 Mn131 2.221 . S
O149 Mn133 2.290 . S
O149 C143 1.278 . S
O150 Mn133 2.251 . S
O150 C143 1.241 . S
O151 Mn152 2.163 . S
O151 C165 1.244 1_556 S
Mn152 O151 2.163 . S
Mn152 O155 2.160 1_455 S
Mn152 O156 2.221 1_455 S
Mn152 O158 2.163 1_455 S
Mn152 O160 2.160 . S
Mn152 O170 2.221 . S
O153 Mn154 2.087 1_554 S
O153 C165 1.256 . S
Mn154 O153 2.087 1_556 S
Mn154 O161 2.089 . S
Mn154 O170 2.290 . S
Mn154 O171 2.251 1_556 S
O155 Mn152 2.160 1_655 S
O155 C166 1.239 . S
O156 Mn152 2.221 1_655 S
O156 Mn157 2.290 . S
O156 C167 1.278 . S
Mn157 O156 2.290 . S
Mn157 O159 2.089 . S
Mn157 O162 2.251 . S
Mn157 O163 2.087 . S
O158 Mn152 2.163 1_655 S
O158 C168 1.244 . S
O159 Mn157 2.089 . S
O159 C166 1.256 . S
O160 Mn152 2.160 . S
O160 C169 1.239 . S
O161 Mn154 2.089 . S
O161 C169 1.256 . S
O162 Mn157 2.251 . S
O162 C167 1.241 . S
O163 Mn157 2.087 . S
O163 C168 1.256 . S
C164 O170 1.278 . S
C164 O171 1.241 1_556 S
C165 O151 1.244 1_554 S
C165 O153 1.256 . S
C166 O155 1.239 . S
C166 O159 1.256 . S
C167 O156 1.278 . S
C167 O162 1.241 . S
C168 O158 1.244 . S
C168 O163 1.256 . S
C169 O160 1.239 . S
C169 O161 1.256 . S
O170 Mn152 2.221 . S
O170 Mn154 2.290 . S
O170 C164 1.278 . S
O171 Mn154 2.251 1_554 S
O171 C164 1.241 1_554 S
C74 C104 2.196 1_545 S
C122 C85 2.200 . S
C143 C52 2.196 . S
C167 C63 2.200 1_655 S
C101 C30 1.575 1_545 S
C41 C125 1.579 . S
C8 C146 1.575 . S
C19 C164 1.579 1_655 S
C106 C62 1.748 . S
C124 C73 1.737 . S
C145 C84 1.739 . S
C51 C169 1.737 . S
C18 C105 1.353 1_655 S
C123 C29 1.351 1_545 S
C144 C40 1.353 . S
C7 C168 1.351 . S
C60 C102 1.699 . S
C71 C126 1.696 . S
C147 C82 1.699 . S
C165 C49 1.696 . S
C16 C103 0.918 . S
C127 C27 0.918 . S
C148 C38 0.918 . S
C5 C166 0.918 . S
