# Generated by pormake.
# Topology bcu-b, (8,8)-cn, num edge types: 1
# Building blocks:
#     Node 0, Type 0, BuildingBlock: TAGTUT_clean_sbu_3, # of connection points: 8
#     Node 1, Type 1, BuildingBlock: VETTIZ_charged_sbu_0, # of connection points: 8
#     Edge 2, Type (0, 1), BuildingBlock: XIVTED_clean_linker_0, # of connection points: 2
#     Edge 3, Type (0, 1), BuildingBlock: XIVTED_clean_linker_0, # of connection points: 2
#     Edge 4, Type (0, 1), BuildingBlock: XIVTED_clean_linker_0, # of connection points: 2
#     Edge 5, Type (0, 1), BuildingBlock: XIVTED_clean_linker_0, # of connection points: 2
#     Edge 6, Type (0, 1), BuildingBlock: XIVTED_clean_linker_0, # of connection points: 2
#     Edge 7, Type (0, 1), BuildingBlock: XIVTED_clean_linker_0, # of connection points: 2
#     Edge 8, Type (0, 1), BuildingBlock: XIVTED_clean_linker_0, # of connection points: 2
#     Edge 9, Type (0, 1), BuildingBlock: XIVTED_clean_linker_0, # of connection points: 2
# Relax obj value: 0.021
# Max RMSD: 0.102
# Mean RMSD: 0.075
data_MOF--net-bcu-b--node1-TAGTUT_clean_sbu_3--node2-VETTIZ_charged_sbu_0--edge1-XIVTED_clean_linker_0
_symmetry_space_group_name_H-M    P1
_symmetry_Int_Tables_number       1
_symmetry_cell_setting            triclinic
loop_
_symmetry_equiv_pos_as_xyz
'x, y, z'
_cell_length_a     20.191295
_cell_length_b     19.456282
_cell_length_c     20.435218
_cell_angle_alpha  89.721996
_cell_angle_beta   90.283001
_cell_angle_gamma 98.890839
loop_
_atom_site_label
_atom_site_type_symbol
_atom_site_fract_x
_atom_site_fract_y
_atom_site_fract_z
_atom_type_partial_charge
C0 C 0.10317 0.12888 0.0777 0.0
C1 C 0.20577 0.88643 0.07316 0.0
C2 C 0.11215 0.87116 0.88339 0.0
Mg3 Mg 0.96619 0.16055 0.00484 0.0
Mg4 Mg 0.84332 0.0301 0.9888 0.0
O5 O 0.93225 0.06699 0.96631 0.0
Mg6 Mg 0.00179 0.01303 -0.00116 0.0
O7 O 0.07447 0.96339 0.0321 0.0
Mg8 Mg 0.15256 0.01299 0.98112 0.0
Mg9 Mg 0.05904 0.86647 0.02051 0.0
C10 C 0.89309 0.8972 0.92614 0.0
O11 O 0.93162 0.95171 0.0761 0.0
O12 O 0.88183 0.19848 0.93873 0.0
O13 O 0.96246 0.84537 0.06745 0.0
O14 O 0.89536 0.14906 0.09129 0.0
O15 O 0.80255 0.10362 0.929 0.0
O16 O 0.81969 0.05332 0.08939 0.0
O17 O 0.07642 0.06858 0.92341 0.0
O18 O 0.04231 0.17249 0.92311 0.0
C19 C 0.08281 0.13223 0.90413 0.0
C20 C 0.82543 0.16728 0.91556 0.0
O21 O 0.95515 0.9245 0.93081 0.0
O22 O 0.21796 0.94765 0.04694 0.0
O23 O 0.84524 0.92513 0.95115 0.0
O24 O 0.14665 0.9289 0.90087 0.0
O25 O 0.14868 0.84752 0.0683 0.0
O26 O 0.06705 0.83879 0.92022 0.0
O27 O 0.04202 0.10485 0.06385 0.0
O28 O 0.15188 0.09961 0.05689 0.0
C29 C 0.84715 0.10891 0.1177 0.0
C30 C 0.92287 0.88592 0.08851 0.0
Fe31 Fe 0.53026 0.67192 0.54134 0.0
O32 O 0.506 0.57008 0.53924 0.0
Fe33 Fe 0.57557 0.51397 0.49591 0.0
Fe34 Fe 0.42294 0.52097 0.4966 0.0
O35 O 0.51276 0.57024 0.53815 0.0
O36 O 0.4923 0.46478 0.4537 0.0
O37 O 0.48562 0.46444 0.45498 0.0
Fe38 Fe 0.46935 0.3628 0.45222 0.0
C39 C 0.38659 0.63644 0.58889 0.0
O40 O 0.46517 0.69028 0.46695 0.0
O41 O 0.43522 0.58802 0.41777 0.0
O42 O 0.54739 0.3743 0.38799 0.0
O43 O 0.63024 0.44637 0.44391 0.0
O44 O 0.59049 0.58178 0.41784 0.0
O45 O 0.60618 0.6807 0.47383 0.0
O46 O 0.34397 0.46257 0.44427 0.0
O47 O 0.39512 0.38217 0.38815 0.0
C48 C 0.61107 0.64686 0.42149 0.0
O49 O 0.53922 0.3459 0.52367 0.0
O50 O 0.56375 0.44776 0.57399 0.0
O51 O 0.44823 0.66303 0.60202 0.0
O52 O 0.36798 0.58795 0.54592 0.0
C53 C 0.44209 0.6542 0.41768 0.0
C54 C 0.34655 0.41765 0.39769 0.0
C55 C 0.38876 0.38766 0.57338 0.0
O56 O 0.40698 0.45337 0.57555 0.0
O57 O 0.39657 0.35247 0.52259 0.0
C58 C 0.60941 0.401 0.39825 0.0
O59 O 0.65425 0.57245 0.54995 0.0
O60 O 0.60109 0.65027 0.60782 0.0
C61 C 0.5637 0.3827 0.57214 0.0
C62 C 0.64998 0.61509 0.59842 0.0
H63 H 0.02994 0.17444 0.1773 0.0
H64 H 0.21718 0.35949 0.42196 0.0
H65 H 0.21364 0.22638 0.06883 0.0
H66 H 0.3516 0.44247 0.26813 0.0
H67 H 0.13721 0.30629 0.33949 0.0
H68 H 0.06971 0.26823 0.2546 0.0
C69 C 0.07818 0.20631 0.16939 0.0
C70 C 0.11957 0.19169 0.11798 0.0
C71 C 0.18271 0.33846 0.3233 0.0
C72 C 0.16582 0.29766 0.20601 0.0
C73 C 0.22831 0.36883 0.37058 0.0
C74 C 0.29073 0.40457 0.35124 0.0
C75 C 0.2005 0.34418 0.25669 0.0
C76 C 0.30389 0.41465 0.28455 0.0
C77 C 0.10121 0.25936 0.21383 0.0
C78 C 0.18108 0.23477 0.10901 0.0
N79 N 0.25963 0.38363 0.23967 0.0
N80 N 0.20251 0.28526 0.15291 0.0
H81 H 0.91041 0.18654 0.21718 0.0
H82 H 0.59264 0.36288 0.27192 0.0
H83 H 0.71424 0.09851 0.14628 0.0
H84 H 0.73278 0.36545 0.43227 0.0
H85 H 0.65208 0.28254 0.21358 0.0
H86 H 0.85833 0.26178 0.29098 0.0
C87 C 0.85625 0.18149 0.21869 0.0
C88 C 0.81643 0.13624 0.17555 0.0
C89 C 0.67023 0.30104 0.2613 0.0
C90 C 0.75741 0.22394 0.25738 0.0
C91 C 0.63699 0.34767 0.29429 0.0
C92 C 0.65748 0.37044 0.35734 0.0
C93 C 0.72526 0.27742 0.29081 0.0
C94 C 0.71561 0.34941 0.38363 0.0
C95 C 0.82681 0.22475 0.26042 0.0
C96 C 0.74671 0.13217 0.17898 0.0
N97 N 0.74757 0.30352 0.35024 0.0
N98 N 0.71949 0.17672 0.21802 0.0
H99 H 0.86276 0.75109 0.08699 0.0
H100 H 0.64748 0.78716 0.40674 0.0
H101 H 0.85201 0.94763 0.18023 0.0
H102 H 0.65413 0.59247 0.30819 0.0
H103 H 0.71274 0.84839 0.3184 0.0
H104 H 0.77682 0.69451 0.16074 0.0
C105 C 0.84202 0.78247 0.12293 0.0
C106 C 0.8654 0.85402 0.12833 0.0
C107 C 0.69957 0.79236 0.31581 0.0
C108 C 0.76685 0.78926 0.21326 0.0
C109 C 0.66247 0.75718 0.36639 0.0
C110 C 0.64622 0.6843 0.36546 0.0
C111 C 0.72095 0.75448 0.26391 0.0
C112 C 0.66603 0.64855 0.31131 0.0
C113 C 0.79272 0.75007 0.16492 0.0
C114 C 0.83567 0.8923 0.17473 0.0
N115 N 0.70296 0.68399 0.26301 0.0
N116 N 0.78845 0.85919 0.21612 0.0
H117 H 0.30262 0.95566 0.15536 0.0
H118 H 0.38605 0.5963 0.30427 0.0
H119 H 0.22441 0.75195 0.08122 0.0
H120 H 0.4463 0.79488 0.39782 0.0
H121 H 0.34202 0.65586 0.21247 0.0
H122 H 0.37168 0.9012 0.23411 0.0
C123 C 0.30117 0.89979 0.15467 0.0
C124 C 0.25736 0.85816 0.11223 0.0
C125 C 0.3652 0.68658 0.25287 0.0
C126 C 0.33525 0.79568 0.20196 0.0
C127 C 0.39043 0.65249 0.30547 0.0
C128 C 0.41929 0.6904 0.35948 0.0
C129 C 0.36854 0.75929 0.25394 0.0
C130 C 0.42388 0.76332 0.35764 0.0
C131 C 0.34005 0.86866 0.19989 0.0
C132 C 0.25691 0.78594 0.11366 0.0
N133 N 0.3983 0.79533 0.30603 0.0
N134 N 0.29472 0.7571 0.15797 0.0
H135 H 0.07971 0.73415 0.8468 0.0
H136 H 0.39363 0.77315 0.61351 0.0
H137 H 0.19101 0.93074 0.78419 0.0
H138 H 0.26187 0.57757 0.6344 0.0
H139 H 0.31273 0.83126 0.66983 0.0
H140 H 0.1356 0.67557 0.76208 0.0
C141 C 0.11464 0.76521 0.81429 0.0
C142 C 0.13201 0.8373 0.82359 0.0
C143 C 0.30083 0.77571 0.66194 0.0
C144 C 0.19627 0.77063 0.72739 0.0
C145 C 0.34741 0.74237 0.63024 0.0
C146 C 0.33483 0.67032 0.62049 0.0
C147 C 0.24138 0.73673 0.68548 0.0
C148 C 0.27348 0.63322 0.64163 0.0
C149 C 0.14666 0.73165 0.76611 0.0
C150 C 0.17718 0.87492 0.77981 0.0
N151 N 0.22924 0.66676 0.67432 0.0
N152 N 0.20844 0.84102 0.73438 0.0
H153 H 0.15681 0.07048 0.81404 0.0
H154 H 0.34362 0.44113 0.68662 0.0
H155 H 0.1393 0.2676 0.90297 0.0
H156 H 0.35498 0.24703 0.58873 0.0
H157 H 0.27976 0.37591 0.77445 0.0
H158 H 0.24153 0.13158 0.739 0.0
C159 C 0.17138 0.12625 0.81829 0.0
C160 C 0.14009 0.16418 0.86378 0.0
C161 C 0.2966 0.34758 0.73386 0.0
C162 C 0.23627 0.23419 0.77879 0.0
C163 C 0.3331 0.38492 0.68373 0.0
C164 C 0.35394 0.34979 0.62968 0.0
C165 C 0.28078 0.27461 0.72994 0.0
C166 C 0.33915 0.27662 0.6289 0.0
C167 C 0.21941 0.16118 0.77543 0.0
C168 C 0.161 0.2364 0.86759 0.0
N169 N 0.30313 0.2416 0.6779 0.0
N170 N 0.20722 0.26897 0.82544 0.0
H171 H 0.84437 0.30592 0.87764 0.0
H172 H 0.56151 0.24394 0.59924 0.0
H173 H 0.71597 0.10979 0.84518 0.0
H174 H 0.6465 0.44895 0.66649 0.0
H175 H 0.62442 0.19347 0.68479 0.0
H176 H 0.77864 0.35979 0.79577 0.0
C177 C 0.80245 0.27428 0.85368 0.0
C178 C 0.78587 0.2032 0.86857 0.0
C179 C 0.629 0.24953 0.681 0.0
C180 C 0.71114 0.2641 0.77469 0.0
C181 C 0.59312 0.27832 0.63209 0.0
C182 C 0.59849 0.35072 0.62565 0.0
C183 C 0.67126 0.2934 0.72334 0.0
C184 C 0.64041 0.39278 0.66975 0.0
C185 C 0.76493 0.30502 0.80706 0.0
C186 C 0.73088 0.16477 0.83577 0.0
N187 N 0.67547 0.36351 0.71643 0.0
N188 N 0.69595 0.19556 0.79034 0.0
H189 H 0.79002 0.79266 0.94833 0.0
H190 H 0.78185 0.67095 0.58164 0.0
H191 H 0.95347 0.85722 0.81567 0.0
H192 H 0.63754 0.58768 0.72719 0.0
H193 H 0.85791 0.72091 0.66946 0.0
H194 H 0.74602 0.6997 0.87329 0.0
C195 C 0.8171 0.78651 0.90361 0.0
C196 C 0.87451 0.83339 0.88737 0.0
C197 C 0.81048 0.68989 0.68229 0.0
C198 C 0.82371 0.72803 0.80017 0.0
C199 C 0.76746 0.66101 0.63221 0.0
C200 C 0.70359 0.62583 0.64771 0.0
C201 C 0.78867 0.6837 0.7477 0.0
C202 C 0.68643 0.61502 0.71362 0.0
C203 C 0.79211 0.73331 0.86071 0.0
C204 C 0.90853 0.82244 0.82951 0.0
N205 N 0.72824 0.64475 0.76114 0.0
N206 N 0.88168 0.77182 0.78707 0.0
loop_
_geom_bond_atom_site_label_1
_geom_bond_atom_site_label_2
_geom_bond_distance
_geom_bond_site_symmetry_2
_ccdc_geom_bond_type
C0 O27 1.312 . S
C0 O28 1.208 . S
C1 O22 1.331 . S
C1 O25 1.244 . S
C2 O24 1.264 . S
C2 O26 1.273 . S
Mg3 O5 1.936 . S
Mg3 O12 2.081 . S
Mg3 O14 2.023 1_556 S
Mg3 O18 2.031 1_655 S
Mg3 O27 2.291 1_656 S
Mg4 O5 1.963 . S
Mg4 O15 1.942 . S
Mg4 O16 1.955 1_556 S
Mg4 O23 1.986 1_545 S
O5 Mg3 1.936 . S
O5 Mg4 1.963 . S
O5 Mg6 1.915 1_656 S
Mg6 O5 1.915 1_454 S
Mg6 O7 1.915 1_545 S
Mg6 O11 2.010 1_445 S
Mg6 O17 2.117 1_554 S
Mg6 O21 2.010 1_444 S
Mg6 O27 2.117 . S
O7 Mg6 1.915 1_565 S
O7 Mg8 1.936 . S
O7 Mg9 1.963 . S
Mg8 O7 1.936 . S
Mg8 O17 2.291 1_564 S
Mg8 O22 2.081 . S
Mg8 O24 2.023 1_554 S
Mg8 O28 2.031 1_565 S
Mg9 O7 1.963 . S
Mg9 O13 1.986 1_455 S
Mg9 O25 1.942 . S
Mg9 O26 1.955 1_554 S
C10 O21 1.191 . S
C10 O23 1.307 . S
O11 Mg6 2.010 1_665 S
O11 C30 1.191 . S
O12 Mg3 2.081 . S
O12 C20 1.331 . S
O13 Mg9 1.986 1_655 S
O13 C30 1.307 . S
O14 Mg3 2.023 1_554 S
O14 C29 1.264 . S
O15 Mg4 1.942 . S
O15 C20 1.244 . S
O16 Mg4 1.955 1_554 S
O16 C29 1.273 . S
O17 Mg6 2.117 1_556 S
O17 Mg8 2.291 1_546 S
O17 C19 1.312 . S
O18 Mg3 2.031 1_455 S
O18 C19 1.208 . S
C19 O17 1.312 . S
C19 O18 1.208 . S
C20 O12 1.331 . S
C20 O15 1.244 . S
O21 Mg6 2.010 1_666 S
O21 C10 1.191 . S
O22 C1 1.331 . S
O22 Mg8 2.081 . S
O23 Mg4 1.986 1_565 S
O23 C10 1.307 . S
O24 C2 1.264 . S
O24 Mg8 2.023 1_556 S
O25 C1 1.244 . S
O25 Mg9 1.942 . S
O26 C2 1.273 . S
O26 Mg9 1.955 1_556 S
O27 C0 1.312 . S
O27 Mg3 2.291 1_454 S
O27 Mg6 2.117 . S
O28 C0 1.208 . S
O28 Mg8 2.031 1_545 S
C29 O14 1.264 . S
C29 O16 1.273 . S
C30 O11 1.191 . S
C30 O13 1.307 . S
Fe31 O32 1.886 . S
Fe31 O35 1.715 . S
Fe31 O40 2.077 . S
Fe31 O45 1.935 . S
Fe31 O51 2.077 . S
Fe31 O60 1.935 . S
O32 Fe31 1.886 . S
O32 Fe34 1.715 . S
Fe33 O35 1.886 . S
Fe33 O36 1.715 . S
Fe33 O43 1.935 . S
Fe33 O44 2.077 . S
Fe33 O50 1.935 . S
Fe33 O59 2.077 . S
Fe34 O32 1.715 . S
Fe34 O37 1.886 . S
Fe34 O41 1.935 . S
Fe34 O46 2.077 . S
Fe34 O52 1.935 . S
Fe34 O56 2.077 . S
O35 Fe31 1.715 . S
O35 Fe33 1.886 . S
O36 Fe33 1.715 . S
O36 Fe38 1.886 . S
O37 Fe34 1.886 . S
O37 Fe38 1.715 . S
Fe38 O36 1.886 . S
Fe38 O37 1.715 . S
Fe38 O42 2.077 . S
Fe38 O47 1.935 . S
Fe38 O49 2.077 . S
Fe38 O57 1.935 . S
C39 O51 1.381 . S
C39 O52 1.421 . S
O40 Fe31 2.077 . S
O40 C53 1.381 . S
O41 Fe34 1.935 . S
O41 C53 1.421 . S
O42 Fe38 2.077 . S
O42 C58 1.381 . S
O43 Fe33 1.935 . S
O43 C58 1.421 . S
O44 Fe33 2.077 . S
O44 C48 1.381 . S
O45 Fe31 1.935 . S
O45 C48 1.421 . S
O46 Fe34 2.077 . S
O46 C54 1.381 . S
O47 Fe38 1.935 . S
O47 C54 1.421 . S
C48 O44 1.381 . S
C48 O45 1.421 . S
O49 Fe38 2.077 . S
O49 C61 1.381 . S
O50 Fe33 1.935 . S
O50 C61 1.421 . S
O51 Fe31 2.077 . S
O51 C39 1.381 . S
O52 Fe34 1.935 . S
O52 C39 1.421 . S
C53 O40 1.381 . S
C53 O41 1.421 . S
C54 O46 1.381 . S
C54 O47 1.421 . S
C55 O56 1.381 . S
C55 O57 1.421 . S
O56 Fe34 2.077 . S
O56 C55 1.381 . S
O57 Fe38 1.935 . S
O57 C55 1.421 . S
C58 O42 1.381 . S
C58 O43 1.421 . S
O59 Fe33 2.077 . S
O59 C62 1.381 . S
O60 Fe31 1.935 . S
O60 C62 1.421 . S
C61 O49 1.381 . S
C61 O50 1.421 . S
C62 O59 1.381 . S
C62 O60 1.421 . S
H63 C69 0.930 . S
H64 C73 0.930 . S
H65 C78 0.929 . S
H66 C76 0.929 . S
H67 C71 0.929 . S
H68 C77 0.929 . S
C69 H63 0.930 . S
C69 C70 1.367 . S
C69 C77 1.378 . S
C70 C69 1.367 . S
C70 C78 1.433 . S
C71 H67 0.929 . S
C71 C73 1.378 . S
C71 C75 1.350 . S
C72 C75 1.463 . S
C72 C77 1.350 . S
C72 N80 1.427 . S
C73 H64 0.930 . S
C73 C71 1.378 . S
C73 C74 1.367 . S
C74 C73 1.367 . S
C74 C76 1.433 . S
C75 C71 1.350 . S
C75 C72 1.463 . S
C75 N79 1.427 . S
C76 H66 0.929 . S
C76 C74 1.433 . S
C76 N79 1.384 . S
C77 H68 0.929 . S
C77 C69 1.378 . S
C77 C72 1.350 . S
C78 H65 0.929 . S
C78 C70 1.433 . S
C78 N80 1.384 . S
N79 C75 1.427 . S
N79 C76 1.384 . S
N80 C72 1.427 . S
N80 C78 1.384 . S
H81 C87 0.930 . S
H82 C91 0.930 . S
H83 C96 0.929 . S
H84 C94 0.929 . S
H85 C89 0.929 . S
H86 C95 0.929 . S
C87 H81 0.930 . S
C87 C88 1.367 . S
C87 C95 1.378 . S
C88 C87 1.367 . S
C88 C96 1.433 . S
C89 H85 0.929 . S
C89 C91 1.378 . S
C89 C93 1.350 . S
C90 C93 1.463 . S
C90 C95 1.350 . S
C90 N98 1.427 . S
C91 H82 0.930 . S
C91 C89 1.378 . S
C91 C92 1.367 . S
C92 C91 1.367 . S
C92 C94 1.433 . S
C93 C89 1.350 . S
C93 C90 1.463 . S
C93 N97 1.427 . S
C94 H84 0.929 . S
C94 C92 1.433 . S
C94 N97 1.384 . S
C95 H86 0.929 . S
C95 C87 1.378 . S
C95 C90 1.350 . S
C96 H83 0.929 . S
C96 C88 1.433 . S
C96 N98 1.384 . S
N97 C93 1.427 . S
N97 C94 1.384 . S
N98 C90 1.427 . S
N98 C96 1.384 . S
H99 C105 0.930 . S
H100 C109 0.930 . S
H101 C114 0.929 . S
H102 C112 0.929 . S
H103 C107 0.929 . S
H104 C113 0.929 . S
C105 H99 0.930 . S
C105 C106 1.367 . S
C105 C113 1.378 . S
C106 C105 1.367 . S
C106 C114 1.433 . S
C107 H103 0.929 . S
C107 C109 1.378 . S
C107 C111 1.350 . S
C108 C111 1.463 . S
C108 C113 1.350 . S
C108 N116 1.427 . S
C109 H100 0.930 . S
C109 C107 1.378 . S
C109 C110 1.367 . S
C110 C109 1.367 . S
C110 C112 1.433 . S
C111 C107 1.350 . S
C111 C108 1.463 . S
C111 N115 1.427 . S
C112 H102 0.929 . S
C112 C110 1.433 . S
C112 N115 1.384 . S
C113 H104 0.929 . S
C113 C105 1.378 . S
C113 C108 1.350 . S
C114 H101 0.929 . S
C114 C106 1.433 . S
C114 N116 1.384 . S
N115 C111 1.427 . S
N115 C112 1.384 . S
N116 C108 1.427 . S
N116 C114 1.384 . S
H117 C123 0.930 . S
H118 C127 0.930 . S
H119 C132 0.929 . S
H120 C130 0.929 . S
H121 C125 0.929 . S
H122 C131 0.929 . S
C123 H117 0.930 . S
C123 C124 1.367 . S
C123 C131 1.378 . S
C124 C123 1.367 . S
C124 C132 1.433 . S
C125 H121 0.929 . S
C125 C127 1.378 . S
C125 C129 1.350 . S
C126 C129 1.463 . S
C126 C131 1.350 . S
C126 N134 1.427 . S
C127 H118 0.930 . S
C127 C125 1.378 . S
C127 C128 1.367 . S
C128 C127 1.367 . S
C128 C130 1.433 . S
C129 C125 1.350 . S
C129 C126 1.463 . S
C129 N133 1.427 . S
C130 H120 0.929 . S
C130 C128 1.433 . S
C130 N133 1.384 . S
C131 H122 0.929 . S
C131 C123 1.378 . S
C131 C126 1.350 . S
C132 H119 0.929 . S
C132 C124 1.433 . S
C132 N134 1.384 . S
N133 C129 1.427 . S
N133 C130 1.384 . S
N134 C126 1.427 . S
N134 C132 1.384 . S
H135 C141 0.930 . S
H136 C145 0.930 . S
H137 C150 0.929 . S
H138 C148 0.929 . S
H139 C143 0.929 . S
H140 C149 0.929 . S
C141 H135 0.930 . S
C141 C142 1.367 . S
C141 C149 1.378 . S
C142 C141 1.367 . S
C142 C150 1.433 . S
C143 H139 0.929 . S
C143 C145 1.378 . S
C143 C147 1.350 . S
C144 C147 1.463 . S
C144 C149 1.350 . S
C144 N152 1.427 . S
C145 H136 0.930 . S
C145 C143 1.378 . S
C145 C146 1.367 . S
C146 C145 1.367 . S
C146 C148 1.433 . S
C147 C143 1.350 . S
C147 C144 1.463 . S
C147 N151 1.427 . S
C148 H138 0.929 . S
C148 C146 1.433 . S
C148 N151 1.384 . S
C149 H140 0.929 . S
C149 C141 1.378 . S
C149 C144 1.350 . S
C150 H137 0.929 . S
C150 C142 1.433 . S
C150 N152 1.384 . S
N151 C147 1.427 . S
N151 C148 1.384 . S
N152 C144 1.427 . S
N152 C150 1.384 . S
H153 C159 0.930 . S
H154 C163 0.930 . S
H155 C168 0.929 . S
H156 C166 0.929 . S
H157 C161 0.929 . S
H158 C167 0.929 . S
C159 H153 0.930 . S
C159 C160 1.367 . S
C159 C167 1.378 . S
C160 C159 1.367 . S
C160 C168 1.433 . S
C161 H157 0.929 . S
C161 C163 1.378 . S
C161 C165 1.350 . S
C162 C165 1.463 . S
C162 C167 1.350 . S
C162 N170 1.427 . S
C163 H154 0.930 . S
C163 C161 1.378 . S
C163 C164 1.367 . S
C164 C163 1.367 . S
C164 C166 1.433 . S
C165 C161 1.350 . S
C165 C162 1.463 . S
C165 N169 1.427 . S
C166 H156 0.929 . S
C166 C164 1.433 . S
C166 N169 1.384 . S
C167 H158 0.929 . S
C167 C159 1.378 . S
C167 C162 1.350 . S
C168 H155 0.929 . S
C168 C160 1.433 . S
C168 N170 1.384 . S
N169 C165 1.427 . S
N169 C166 1.384 . S
N170 C162 1.427 . S
N170 C168 1.384 . S
H171 C177 0.930 . S
H172 C181 0.930 . S
H173 C186 0.929 . S
H174 C184 0.929 . S
H175 C179 0.929 . S
H176 C185 0.929 . S
C177 H171 0.930 . S
C177 C178 1.367 . S
C177 C185 1.378 . S
C178 C177 1.367 . S
C178 C186 1.433 . S
C179 H175 0.929 . S
C179 C181 1.378 . S
C179 C183 1.350 . S
C180 C183 1.463 . S
C180 C185 1.350 . S
C180 N188 1.427 . S
C181 H172 0.930 . S
C181 C179 1.378 . S
C181 C182 1.367 . S
C182 C181 1.367 . S
C182 C184 1.433 . S
C183 C179 1.350 . S
C183 C180 1.463 . S
C183 N187 1.427 . S
C184 H174 0.929 . S
C184 C182 1.433 . S
C184 N187 1.384 . S
C185 H176 0.929 . S
C185 C177 1.378 . S
C185 C180 1.350 . S
C186 H173 0.929 . S
C186 C178 1.433 . S
C186 N188 1.384 . S
N187 C183 1.427 . S
N187 C184 1.384 . S
N188 C180 1.427 . S
N188 C186 1.384 . S
H189 C195 0.930 . S
H190 C199 0.930 . S
H191 C204 0.929 . S
H192 C202 0.929 . S
H193 C197 0.929 . S
H194 C203 0.929 . S
C195 H189 0.930 . S
C195 C196 1.367 . S
C195 C203 1.378 . S
C196 C195 1.367 . S
C196 C204 1.433 . S
C197 H193 0.929 . S
C197 C199 1.378 . S
C197 C201 1.350 . S
C198 C201 1.463 . S
C198 C203 1.350 . S
C198 N206 1.427 . S
C199 H190 0.930 . S
C199 C197 1.378 . S
C199 C200 1.367 . S
C200 C199 1.367 . S
C200 C202 1.433 . S
C201 C197 1.350 . S
C201 C198 1.463 . S
C201 N205 1.427 . S
C202 H192 0.929 . S
C202 C200 1.433 . S
C202 N205 1.384 . S
C203 H194 0.929 . S
C203 C195 1.378 . S
C203 C198 1.350 . S
C204 H191 0.929 . S
C204 C196 1.433 . S
C204 N206 1.384 . S
N205 C201 1.427 . S
N205 C202 1.384 . S
N206 C198 1.427 . S
N206 C204 1.384 . S
C70 C0 1.350 . S
C74 C54 1.384 . S
C88 C29 1.597 . S
C92 C58 1.583 . S
C106 C30 1.327 . S
C110 C48 1.326 . S
C124 C1 1.531 . S
C128 C53 1.520 . S
C142 C2 1.588 . S
C146 C39 1.572 . S
C164 C55 1.390 . S
C160 C19 1.367 . S
C178 C20 1.525 . S
C182 C61 1.511 . S
C200 C62 1.332 . S
C196 C10 1.326 . S
