# Generated by pormake.
# Topology pts, (4,4)-cn, num edge types: 1
# Building blocks:
#     Node 0, Type 0, BuildingBlock: NAWXER_clean_sbu_0, # of connection points: 4
#     Node 1, Type 0, BuildingBlock: NAWXER_clean_sbu_0, # of connection points: 4
#     Node 2, Type 1, BuildingBlock: QUQFOY_clean_sbu_1, # of connection points: 4
#     Node 3, Type 1, BuildingBlock: QUQFOY_clean_sbu_1, # of connection points: 4
#     Edge 4, Type (0, 1), BuildingBlock: AJUNOK_clean_linker_0, # of connection points: 2
#     Edge 5, Type (0, 1), BuildingBlock: AJUNOK_clean_linker_0, # of connection points: 2
#     Edge 6, Type (0, 1), BuildingBlock: AJUNOK_clean_linker_0, # of connection points: 2
#     Edge 7, Type (0, 1), BuildingBlock: AJUNOK_clean_linker_0, # of connection points: 2
#     Edge 8, Type (0, 1), BuildingBlock: AJUNOK_clean_linker_0, # of connection points: 2
#     Edge 9, Type (0, 1), BuildingBlock: AJUNOK_clean_linker_0, # of connection points: 2
#     Edge 10, Type (0, 1), BuildingBlock: AJUNOK_clean_linker_0, # of connection points: 2
#     Edge 11, Type (0, 1), BuildingBlock: AJUNOK_clean_linker_0, # of connection points: 2
# Relax obj value: 0.106
# Max RMSD: 0.241
# Mean RMSD: 0.139
data_MOF--net-pts--node1-NAWXER_clean_sbu_0--node2-QUQFOY_clean_sbu_1--edge1-AJUNOK_clean_linker_0
_symmetry_space_group_name_H-M    P1
_symmetry_Int_Tables_number       1
_symmetry_cell_setting            triclinic
loop_
_symmetry_equiv_pos_as_xyz
'x, y, z'
_cell_length_a     16.792355
_cell_length_b     17.395119
_cell_length_c     28.389843
_cell_angle_alpha  89.865448
_cell_angle_beta   90.199996
_cell_angle_gamma 90.71569
loop_
_atom_site_label
_atom_site_type_symbol
_atom_site_fract_x
_atom_site_fract_y
_atom_site_fract_z
_atom_type_partial_charge
C0 C 0.37685 0.9813 0.95608 0.0
C1 C 0.57897 0.98521 0.08185 0.0
O2 O 0.40529 0.92109 0.9752 0.0
Zn3 Zn 0.47895 0.9742 1.01844 0.0
O4 O 0.4003 0.04769 0.96995 0.0
Zn5 Zn 0.47815 0.10111 1.0183 0.0
O6 O 0.5532 0.154 0.97581 0.0
O7 O 0.55776 1.02742 0.97093 0.0
O8 O 0.55545 0.05071 0.06738 0.0
O9 O 0.55265 0.92395 0.06233 0.0
O10 O 0.39914 1.02471 0.06558 0.0
O11 O 0.40275 0.15142 0.06072 0.0
C12 C 0.58166 0.09371 0.9571 0.0
C13 C 0.37457 0.0901 0.07938 0.0
C14 C 0.9169 0.63528 0.45707 0.0
C15 C 0.9227 0.42955 0.57594 0.0
O16 O 0.8554 0.59928 0.47202 0.0
Zn17 Zn 0.91123 0.53047 0.51558 0.0
O18 O -0.0139 0.61714 0.47179 0.0
Zn19 Zn 0.0416 0.54019 0.51853 0.0
O20 O 0.10157 0.47296 0.47605 0.0
O21 O 0.97108 0.45891 0.46861 0.0
O22 O -0.00955 0.4586 0.56505 0.0
O23 O 0.85949 0.45301 0.55581 0.0
O24 O 0.95754 0.60902 0.5659 0.0
O25 O 0.08925 0.61427 0.56257 0.0
C26 C 0.04144 0.44068 0.45658 0.0
C27 C 0.02403 0.6369 0.58045 0.0
O28 O 0.89611 0.96422 0.21233 0.0
Cd29 Cd -0.00888 0.96092 0.25759 0.0
Cd30 Cd 0.96578 0.11096 0.26015 0.0
O31 O 0.85426 0.07743 0.23504 0.0
O32 O -0.00717 0.85026 0.2756 0.0
O33 O 0.96644 0.94324 0.32611 0.0
C34 C 0.97053 0.87055 0.31714 0.0
C35 C -0.01223 0.20139 0.31977 0.0
C36 C 0.84278 1.01512 0.21238 0.0
C37 C 0.11103 0.05982 0.21021 0.0
O38 O 0.05818 0.11095 0.21314 0.0
O39 O 0.10078 0.99545 0.23099 0.0
O40 O 0.96171 0.22113 0.27876 0.0
O41 O -0.0043 0.12881 0.32817 0.0
O42 O 0.90213 0.11457 0.82622 0.0
Cd43 Cd -0.00553 0.10929 0.77922 0.0
Cd44 Cd 0.96006 0.9633 0.78034 0.0
O45 O 0.85208 1.00239 0.80554 0.0
O46 O 0.00614 0.21732 0.75719 0.0
O47 O 0.96493 0.12281 0.71087 0.0
C48 C -0.02184 0.19549 0.71694 0.0
C49 C 0.97355 0.87459 0.71967 0.0
C50 C 0.84546 0.06583 0.82742 0.0
C51 C 0.11045 1.00817 0.82709 0.0
O52 O 0.05372 0.95941 0.82677 0.0
O53 O 0.10323 0.07117 0.80457 0.0
O54 O 0.94565 0.85467 0.76024 0.0
O55 O -0.01136 0.94668 0.71236 0.0
C56 C 0.30207 1.02329 0.144 0.0
C57 C 0.31285 0.09023 0.11653 0.0
C58 C 0.23842 1.01526 0.1752 0.0
C59 C 0.18244 0.07383 0.18046 0.0
H60 H 0.34221 0.97533 0.14062 0.0
H61 H 0.23211 0.9616 0.19435 0.0
S62 S 0.18803 0.26417 0.12029 0.0
N63 N 0.26573 0.21858 0.0991 0.0
N64 N 0.14563 0.2043 0.15813 0.0
C65 C 0.19471 0.143 0.15504 0.0
C66 C 0.26006 0.15108 0.12309 0.0
C67 C 0.95046 0.38914 0.65759 0.0
C68 C 0.92165 0.3699 0.61266 0.0
C69 C 0.96776 0.33224 0.69087 0.0
C70 C 0.95824 0.25352 0.68031 0.0
H71 H 0.96212 0.44878 0.66657 0.0
H72 H -0.00977 0.35046 0.72492 0.0
S73 S 0.88612 0.17363 0.5664 0.0
N74 N 0.88488 0.26776 0.55855 0.0
N75 N 0.91738 0.1598 0.621 0.0
C76 C 0.92828 0.2336 0.63542 0.0
C77 C 0.91007 0.29204 0.6016 0.0
C78 C 0.70061 0.93165 0.12054 0.0
C79 C 0.63823 0.98447 0.1204 0.0
C80 C 0.76524 0.94057 0.15165 0.0
C81 C 0.76961 1.00255 0.18372 0.0
H82 H 0.70168 0.88572 0.09485 0.0
H83 H 0.81355 0.90013 0.14916 0.0
S84 S 0.61383 0.14877 0.20223 0.0
N85 N 0.57942 0.09507 0.15866 0.0
N86 N 0.7006 0.11192 0.21685 0.0
C87 C 0.70473 0.05259 0.1859 0.0
C88 C 0.63913 0.04346 0.15433 0.0
C89 C 0.96829 0.68396 0.65542 0.0
C90 C 0.02119 0.69556 0.61776 0.0
C91 C 0.95372 0.74218 0.68805 0.0
C92 C -0.0099 0.81513 0.68376 0.0
H93 H 0.93682 0.62952 0.6593 0.0
H94 H 0.91229 0.73018 0.71637 0.0
S95 S 0.13403 0.87459 0.59111 0.0
N96 N 0.11105 0.78448 0.57802 0.0
N97 N 0.08297 0.89516 0.63902 0.0
C98 C 0.04389 0.82737 0.64637 0.0
C99 C 0.05978 0.76722 0.61351 0.0
C100 C 0.30783 0.04293 0.88874 0.0
C101 C 0.31532 0.97868 0.91866 0.0
C102 C 0.24321 0.05028 0.85803 0.0
C103 C 0.18287 0.99374 0.85588 0.0
H104 H 0.3512 0.08955 0.89003 0.0
H105 H 0.23948 0.10213 0.83697 0.0
S106 S 0.17872 0.81003 0.92332 0.0
N107 N 0.26057 0.85444 0.94166 0.0
N108 N 0.13848 0.86747 0.88367 0.0
C109 C 0.19192 0.92679 0.88365 0.0
C110 C 0.25833 0.91935 0.91501 0.0
C111 C 0.02408 0.39803 0.37442 0.0
C112 C 0.04842 0.38081 0.42052 0.0
C113 C 0.0062 0.33954 0.3421 0.0
C114 C 0.01059 0.26129 0.35485 0.0
H115 H 0.01498 0.45727 0.36396 0.0
H116 H -0.01353 0.35615 0.30721 0.0
S117 S 0.07169 0.18665 0.47207 0.0
N118 N 0.07673 0.28109 0.47772 0.0
N119 N 0.04355 0.17033 0.41713 0.0
C120 C 0.03715 0.24342 0.40071 0.0
C121 C 0.0558 0.30338 0.43353 0.0
C122 C 0.64931 1.03198 0.88981 0.0
C123 C 0.64288 0.09608 0.91974 0.0
C124 C 0.71319 1.02444 0.8589 0.0
C125 C 0.77384 0.08063 0.85651 0.0
H126 H 0.60562 0.98565 0.8912 0.0
H127 H 0.71606 0.97272 0.83782 0.0
S128 S 0.78074 0.2638 0.92393 0.0
N129 N 0.69896 0.2198 0.94255 0.0
N130 N 0.81975 0.20639 0.88415 0.0
C131 C 0.76589 0.14743 0.88431 0.0
C132 C 0.7002 0.15506 0.91591 0.0
C133 C 0.93875 0.77186 0.43524 0.0
C134 C 0.91244 0.69776 0.42229 0.0
C135 C 0.95489 0.82842 0.40111 0.0
C136 C 0.94789 0.81187 0.3528 0.0
H137 H 0.94994 0.78518 0.47196 0.0
H138 H 0.9764 0.8843 0.41261 0.0
S139 S 0.87811 0.62676 0.30112 0.0
N140 N 0.87696 0.61144 0.35856 0.0
N141 N 0.90857 0.71671 0.29402 0.0
C142 C 0.91935 0.73839 0.33958 0.0
C143 C 0.90137 0.68152 0.37445 0.0
loop_
_geom_bond_atom_site_label_1
_geom_bond_atom_site_label_2
_geom_bond_distance
_geom_bond_site_symmetry_2
_ccdc_geom_bond_type
C0 O2 1.248 . S
C0 O4 1.257 1_565 S
C1 O8 1.251 . S
C1 O9 1.254 1_545 S
O2 C0 1.248 . S
O2 Zn3 2.028 1_556 S
Zn3 O2 2.028 1_554 S
Zn3 O7 2.035 1_554 S
Zn3 O9 2.035 . S
Zn3 O10 2.028 . S
O4 C0 1.257 1_545 S
O4 Zn5 2.035 1_556 S
Zn5 O4 2.035 1_554 S
Zn5 O6 2.028 1_554 S
Zn5 O8 2.028 . S
Zn5 O11 2.035 . S
O6 Zn5 2.028 1_556 S
O6 C12 1.251 . S
O7 Zn3 2.035 1_556 S
O7 C12 1.254 1_565 S
O8 C1 1.251 . S
O8 Zn5 2.028 . S
O9 C1 1.254 1_565 S
O9 Zn3 2.035 . S
O10 Zn3 2.028 . S
O10 C13 1.248 . S
O11 Zn5 2.035 . S
O11 C13 1.257 1_545 S
C12 O6 1.251 . S
C12 O7 1.254 1_545 S
C13 O10 1.248 . S
C13 O11 1.257 1_565 S
C14 O16 1.248 . S
C14 O18 1.257 1_655 S
C15 O22 1.251 . S
C15 O23 1.254 1_455 S
O16 C14 1.248 . S
O16 Zn17 2.028 . S
Zn17 O16 2.028 . S
Zn17 O21 2.035 . S
Zn17 O23 2.035 . S
Zn17 O24 2.028 . S
O18 C14 1.257 1_455 S
O18 Zn19 2.035 . S
Zn19 O18 2.035 . S
Zn19 O20 2.028 . S
Zn19 O22 2.028 . S
Zn19 O25 2.035 . S
O20 Zn19 2.028 . S
O20 C26 1.251 . S
O21 Zn17 2.035 . S
O21 C26 1.254 1_655 S
O22 C15 1.251 . S
O22 Zn19 2.028 . S
O23 C15 1.254 1_655 S
O23 Zn17 2.035 . S
O24 Zn17 2.028 . S
O24 C27 1.248 . S
O25 Zn19 2.035 . S
O25 C27 1.257 1_455 S
C26 O20 1.251 . S
C26 O21 1.254 1_455 S
C27 O24 1.248 . S
C27 O25 1.257 1_655 S
O28 Cd29 2.223 1_655 S
O28 C36 1.315 . S
Cd29 O28 2.223 1_455 S
Cd29 O32 2.297 1_455 S
Cd29 O33 2.439 1_455 S
Cd29 O39 2.240 1_565 S
Cd30 O31 2.240 1_545 S
Cd30 O38 2.223 1_655 S
Cd30 O40 2.297 1_655 S
Cd30 O41 2.439 1_655 S
O31 Cd30 2.240 1_565 S
O31 C36 1.279 . S
O32 Cd29 2.297 1_655 S
O32 C34 1.247 . S
O33 Cd29 2.439 1_655 S
O33 C34 1.208 . S
C34 O32 1.247 . S
C34 O33 1.208 . S
C35 O40 1.247 . S
C35 O41 1.208 . S
C36 O28 1.315 . S
C36 O31 1.279 . S
C37 O38 1.315 . S
C37 O39 1.279 . S
O38 Cd30 2.223 1_455 S
O38 C37 1.315 . S
O39 Cd29 2.240 1_545 S
O39 C37 1.279 . S
O40 Cd30 2.297 1_455 S
O40 C35 1.247 . S
O41 Cd30 2.439 1_455 S
O41 C35 1.208 . S
O42 Cd43 2.223 1_655 S
O42 C50 1.315 . S
Cd43 O42 2.223 1_455 S
Cd43 O46 2.297 1_455 S
Cd43 O47 2.439 1_455 S
Cd43 O53 2.240 1_545 S
Cd44 O45 2.240 1_565 S
Cd44 O52 2.223 1_655 S
Cd44 O54 2.297 1_655 S
Cd44 O55 2.439 1_655 S
O45 Cd44 2.240 1_545 S
O45 C50 1.279 . S
O46 Cd43 2.297 1_655 S
O46 C48 1.247 . S
O47 Cd43 2.439 1_655 S
O47 C48 1.208 . S
C48 O46 1.247 . S
C48 O47 1.208 . S
C49 O54 1.247 . S
C49 O55 1.208 . S
C50 O42 1.315 . S
C50 O45 1.279 . S
C51 O52 1.315 . S
C51 O53 1.279 . S
O52 Cd44 2.223 1_455 S
O52 C51 1.315 . S
O53 Cd43 2.240 1_565 S
O53 C51 1.279 . S
O54 Cd44 2.297 1_455 S
O54 C49 1.247 . S
O55 Cd44 2.439 1_455 S
O55 C49 1.208 . S
C56 C57 1.369 1_565 S
C56 C58 1.419 . S
C56 H60 0.930 . S
C57 C56 1.369 1_545 S
C57 C66 1.429 . S
C58 C56 1.419 . S
C58 C59 1.363 1_565 S
C58 H61 0.929 . S
C59 C58 1.363 1_545 S
C59 C65 1.428 . S
H60 C56 0.930 . S
H61 C58 0.929 . S
S62 N63 1.613 . S
S62 N64 1.610 . S
N63 S62 1.613 . S
N63 C66 1.350 . S
N64 S62 1.610 . S
N64 C65 1.351 . S
C65 C59 1.428 . S
C65 N64 1.351 . S
C65 C66 1.434 . S
C66 C57 1.429 . S
C66 N63 1.350 . S
C66 C65 1.434 . S
C67 C68 1.369 . S
C67 C69 1.419 . S
C67 H71 0.930 . S
C68 C67 1.369 . S
C68 C77 1.429 1_655 S
C69 C67 1.419 . S
C69 C70 1.363 . S
C69 H72 0.929 . S
C70 C69 1.363 . S
C70 C76 1.428 . S
H71 C67 0.930 . S
H72 C69 0.929 . S
S73 N74 1.613 . S
S73 N75 1.610 . S
N74 S73 1.613 . S
N74 C77 1.350 . S
N75 S73 1.610 . S
N75 C76 1.351 1_455 S
C76 C70 1.428 . S
C76 N75 1.351 1_655 S
C76 C77 1.434 1_655 S
C77 C68 1.429 1_455 S
C77 N74 1.350 . S
C77 C76 1.434 1_455 S
C78 C79 1.369 . S
C78 C80 1.419 . S
C78 H82 0.930 . S
C79 C78 1.369 . S
C79 C88 1.429 . S
C80 C78 1.419 . S
C80 C81 1.363 . S
C80 H83 0.929 . S
C81 C80 1.363 . S
C81 C87 1.428 . S
H82 C78 0.930 . S
H83 C80 0.929 . S
S84 N85 1.613 . S
S84 N86 1.610 1_545 S
N85 S84 1.613 . S
N85 C88 1.350 1_545 S
N86 S84 1.610 1_565 S
N86 C87 1.351 . S
C87 C81 1.428 . S
C87 N86 1.351 . S
C87 C88 1.434 . S
C88 C79 1.429 . S
C88 N85 1.350 1_565 S
C88 C87 1.434 . S
C89 C90 1.369 . S
C89 C91 1.419 . S
C89 H93 0.930 . S
C90 C89 1.369 . S
C90 C99 1.429 . S
C91 C89 1.419 . S
C91 C92 1.363 . S
C91 H94 0.929 . S
C92 C91 1.363 . S
C92 C98 1.428 . S
H93 C89 0.930 . S
H94 C91 0.929 . S
S95 N96 1.613 . S
S95 N97 1.610 1_655 S
N96 S95 1.613 . S
N96 C99 1.350 1_655 S
N97 S95 1.610 1_455 S
N97 C98 1.351 . S
C98 C92 1.428 . S
C98 N97 1.351 . S
C98 C99 1.434 . S
C99 C90 1.429 . S
C99 N96 1.350 1_455 S
C99 C98 1.434 . S
C100 C101 1.369 1_545 S
C100 C102 1.419 1_545 S
C100 H104 0.930 . S
C101 C100 1.369 1_565 S
C101 C110 1.429 . S
C102 C100 1.419 1_565 S
C102 C103 1.363 . S
C102 H105 0.929 . S
C103 C102 1.363 . S
C103 C109 1.428 . S
H104 C100 0.930 . S
H105 C102 0.929 . S
S106 N107 1.613 . S
S106 N108 1.610 . S
N107 S106 1.613 . S
N107 C110 1.350 . S
N108 S106 1.610 . S
N108 C109 1.351 . S
C109 C103 1.428 . S
C109 N108 1.351 . S
C109 C110 1.434 . S
C110 C101 1.429 . S
C110 N107 1.350 . S
C110 C109 1.434 . S
C111 C112 1.369 1_655 S
C111 C113 1.419 . S
C111 H115 0.930 . S
C112 C111 1.369 1_455 S
C112 C121 1.429 . S
C113 C111 1.419 . S
C113 C114 1.363 1_655 S
C113 H116 0.929 . S
C114 C113 1.363 1_455 S
C114 C120 1.428 . S
H115 C111 0.930 . S
H116 C113 0.929 . S
S117 N118 1.613 . S
S117 N119 1.610 . S
N118 S117 1.613 . S
N118 C121 1.350 . S
N119 S117 1.610 . S
N119 C120 1.351 . S
C120 C114 1.428 . S
C120 N119 1.351 . S
C120 C121 1.434 . S
C121 C112 1.429 . S
C121 N118 1.350 . S
C121 C120 1.434 . S
C122 C123 1.369 1_565 S
C122 C124 1.419 . S
C122 H126 0.930 . S
C123 C122 1.369 1_545 S
C123 C132 1.429 . S
C124 C122 1.419 . S
C124 C125 1.363 1_565 S
C124 H127 0.929 . S
C125 C124 1.363 1_545 S
C125 C131 1.428 . S
H126 C122 0.930 . S
H127 C124 0.929 . S
S128 N129 1.613 . S
S128 N130 1.610 . S
N129 S128 1.613 . S
N129 C132 1.350 . S
N130 S128 1.610 . S
N130 C131 1.351 . S
C131 C125 1.428 . S
C131 N130 1.351 . S
C131 C132 1.434 . S
C132 C123 1.429 . S
C132 N129 1.350 . S
C132 C131 1.434 . S
C133 C134 1.369 1_455 S
C133 C135 1.419 . S
C133 H137 0.930 . S
C134 C133 1.369 1_655 S
C134 C143 1.429 . S
C135 C133 1.419 . S
C135 C136 1.363 1_455 S
C135 H138 0.929 . S
C136 C135 1.363 1_655 S
C136 C142 1.428 . S
H137 C133 0.930 . S
H138 C135 0.929 . S
S139 N140 1.613 . S
S139 N141 1.610 . S
N140 S139 1.613 . S
N140 C143 1.350 . S
N141 S139 1.610 . S
N141 C142 1.351 . S
C142 C136 1.428 . S
C142 N141 1.351 . S
C142 C143 1.434 . S
C143 C134 1.429 . S
C143 N140 1.350 . S
C143 C142 1.434 . S
C59 C37 1.573 . S
C57 C13 1.564 1_545 S
C70 C48 1.514 . S
C68 C15 1.583 1_655 S
C81 C36 1.573 . S
C79 C1 1.567 1_565 S
C92 C49 1.514 . S
C90 C27 1.586 1_455 S
C103 C51 1.573 . S
C101 C0 1.568 . S
C114 C35 1.515 . S
C112 C26 1.581 . S
C125 C50 1.573 . S
C123 C12 1.570 . S
C134 C14 1.582 . S
C136 C34 1.515 . S
