# Generated by pormake.
# Topology pth, (4,4)-cn, num edge types: 1
# Building blocks:
#     Node 0, Type 0, BuildingBlock: GALJAG_clean_sbu_0, # of connection points: 4
#     Node 1, Type 0, BuildingBlock: GALJAG_clean_sbu_0, # of connection points: 4
#     Node 2, Type 0, BuildingBlock: GALJAG_clean_sbu_0, # of connection points: 4
#     Node 3, Type 1, BuildingBlock: NAWXER_clean_sbu_0, # of connection points: 4
#     Node 4, Type 1, BuildingBlock: NAWXER_clean_sbu_0, # of connection points: 4
#     Node 5, Type 1, BuildingBlock: NAWXER_clean_sbu_0, # of connection points: 4
#     Edge 6, Type (0, 1), BuildingBlock: AJUNOK_clean_linker_0, # of connection points: 2
#     Edge 7, Type (0, 1), BuildingBlock: AJUNOK_clean_linker_0, # of connection points: 2
#     Edge 8, Type (0, 1), BuildingBlock: AJUNOK_clean_linker_0, # of connection points: 2
#     Edge 9, Type (0, 1), BuildingBlock: AJUNOK_clean_linker_0, # of connection points: 2
#     Edge 10, Type (0, 1), BuildingBlock: AJUNOK_clean_linker_0, # of connection points: 2
#     Edge 11, Type (0, 1), BuildingBlock: AJUNOK_clean_linker_0, # of connection points: 2
#     Edge 12, Type (0, 1), BuildingBlock: AJUNOK_clean_linker_0, # of connection points: 2
#     Edge 13, Type (0, 1), BuildingBlock: AJUNOK_clean_linker_0, # of connection points: 2
#     Edge 14, Type (0, 1), BuildingBlock: AJUNOK_clean_linker_0, # of connection points: 2
#     Edge 15, Type (0, 1), BuildingBlock: AJUNOK_clean_linker_0, # of connection points: 2
#     Edge 16, Type (0, 1), BuildingBlock: AJUNOK_clean_linker_0, # of connection points: 2
#     Edge 17, Type (0, 1), BuildingBlock: AJUNOK_clean_linker_0, # of connection points: 2
# Relax obj value: 0.017
# Max RMSD: 0.060
# Mean RMSD: 0.053
data_MOF--net-pth--node1-GALJAG_clean_sbu_0--node2-NAWXER_clean_sbu_0--edge1-AJUNOK_clean_linker_0
_symmetry_space_group_name_H-M    P1
_symmetry_Int_Tables_number       1
_symmetry_cell_setting            triclinic
loop_
_symmetry_equiv_pos_as_xyz
'x, y, z'
_cell_length_a     16.83936
_cell_length_b     16.838329
_cell_length_c     41.565326
_cell_angle_alpha  90.203188
_cell_angle_beta   90.024794
_cell_angle_gamma 119.85971
loop_
_atom_site_label
_atom_site_type_symbol
_atom_site_fract_x
_atom_site_fract_y
_atom_site_fract_z
_atom_type_partial_charge
In0 In 0.03227 0.01777 0.06725 0.0
O1 O 0.97189 0.09784 0.09065 0.0
O2 O 0.10458 0.12507 0.10591 0.0
C3 C 0.92423 0.88695 0.02532 0.0
C4 C 0.14543 0.14802 0.02637 0.0
C5 C 1.01273 0.89005 0.10979 0.0
O6 O 0.89645 0.93296 0.04132 0.0
O7 O 1.00768 0.91095 0.02939 0.0
O8 O 0.08625 0.93614 0.09388 0.0
O9 O 0.95217 0.91236 0.1052 0.0
C10 C 0.04195 0.14553 0.10816 0.0
O11 O 0.17183 0.10311 0.0436 0.0
O12 O 0.06137 0.1232 0.0288 0.0
In13 In 0.03061 0.01852 0.4005 0.0
O14 O 0.08335 0.15522 0.37526 0.0
O15 O 0.95114 0.04436 0.36217 0.0
C16 C 0.1425 1.00092 0.44195 0.0
C17 C 0.92125 0.04101 0.44172 0.0
C18 C 0.04791 0.90379 0.36023 0.0
O19 O 0.16919 0.07235 0.42486 0.0
O20 O 0.05848 0.94199 0.43927 0.0
O21 O 0.97715 0.87823 0.37761 0.0
O22 O 0.10608 0.98838 0.36168 0.0
C23 C 1.0104 0.12802 0.35884 0.0
O24 O 0.89319 0.96818 0.4251 0.0
O25 O 1.00542 0.09897 0.43873 0.0
In26 In 0.03346 1.01449 0.7339 0.0
O27 O 0.94646 0.87483 0.75727 0.0
O28 O 0.92774 0.98602 0.77231 0.0
C29 C 0.16327 0.03151 0.69268 0.0
C30 C 0.90741 1.00593 0.69252 0.0
C31 C 0.1633 0.124 0.77589 0.0
O32 O 0.11735 0.95959 0.70935 0.0
O33 O 0.13906 0.09123 0.6955 0.0
O34 O 0.11777 0.15133 0.75948 0.0
O35 O 0.13915 0.04039 0.77223 0.0
C36 C 0.90201 0.90176 0.77458 0.0
O37 O 0.95522 0.07587 0.71007 0.0
O38 O 0.927 0.94272 0.69489 0.0
C39 C 0.09645 0.65272 0.27837 0.0
C40 C 0.08236 0.44005 0.19286 0.0
O41 O 0.1682 0.65995 0.26512 0.0
Zn42 Zn 0.10452 0.55421 0.23533 0.0
O43 O 1.01742 0.59034 0.26911 0.0
Zn44 Zn 0.95133 0.48234 0.23649 0.0
O45 O 0.89129 0.37644 0.26598 0.0
O46 O 0.04232 0.44516 0.2676 0.0
O47 O 1.00703 0.43022 0.20355 0.0
O48 O 0.15792 0.50332 0.20449 0.0
O49 O 0.04488 0.60638 0.20416 0.0
O50 O 0.89424 0.53338 0.20751 0.0
C51 C 0.96445 0.38244 0.27752 0.0
C52 C 0.96809 0.59671 0.19515 0.0
C53 C 0.61432 0.96902 0.60804 0.0
C54 C 0.39842 0.96091 0.52498 0.0
O55 O 0.55048 0.89404 0.59623 0.0
Zn56 Zn 0.49923 0.94946 0.56645 0.0
O57 O 0.62445 0.04495 0.59796 0.0
Zn58 Zn 0.57231 0.10296 0.56611 0.0
O59 O 0.5239 0.1601 0.59634 0.0
O60 O 0.4505 1.00913 0.59917 0.0
O61 O 0.46219 0.03913 0.53437 0.0
O62 O 0.39195 0.88834 0.53717 0.0
O63 O 0.607 1.01185 0.53376 0.0
O64 O 0.67707 0.16289 0.53609 0.0
C65 C 0.46194 0.08596 0.60902 0.0
C66 C 0.66988 0.08974 0.52395 0.0
C67 C 0.40014 0.44155 0.94278 0.0
C68 C 0.60852 0.64903 0.85866 0.0
O69 O 0.39201 0.50662 0.93052 0.0
Zn70 Zn 0.49743 0.55239 0.90076 0.0
O71 O 0.4645 0.42794 0.93328 0.0
Zn72 Zn 0.57354 0.47568 0.90073 0.0
O73 O 0.68035 0.52299 0.93013 0.0
O74 O 0.60744 0.60133 0.93286 0.0
O75 O 0.62174 0.58453 0.86819 0.0
O76 O 0.54367 0.65765 0.87095 0.0
O77 O 0.44806 0.44214 0.86868 0.0
O78 O 0.52597 0.36883 0.87125 0.0
C79 C 0.67225 0.58839 0.94228 0.0
C80 C 0.46068 0.3771 0.85919 0.0
C81 C 0.13477 0.27688 0.14591 0.0
C82 C 0.05268 0.22273 0.12867 0.0
C83 C 0.14658 0.35038 0.1655 0.0
C84 C 0.07659 0.37226 0.16859 0.0
H85 H 0.1902 0.26185 0.14459 0.0
H86 H 0.20954 0.38812 0.17908 0.0
S87 S 0.85109 0.25628 0.12659 0.0
N88 N 0.90236 0.19943 0.11484 0.0
N89 N 0.92427 0.33721 0.15097 0.0
C90 C 0.99542 0.32046 0.15055 0.0
C91 C 0.98344 0.24579 0.13082 0.0
C92 C 0.7646 0.9972 0.46111 0.0
C93 C 0.85903 0.05954 0.46167 0.0
C94 C 0.7039 1.01161 0.47982 0.0
C95 C 0.7347 0.08897 0.50001 0.0
H96 H 0.73708 0.93585 0.44642 0.0
H97 H 0.63201 0.95989 0.47913 0.0
S98 S 0.97476 0.27616 0.50895 0.0
N99 N 0.98044 0.20479 0.48292 0.0
N100 N 0.86546 0.23086 0.51841 0.0
C101 C 0.82839 0.15396 0.49992 0.0
C102 C 0.89074 0.13932 0.48077 0.0
C103 C 0.79792 0.74588 0.79661 0.0
C104 C 0.82328 0.83876 0.79502 0.0
C105 C 0.72527 0.68491 0.81602 0.0
C106 C 0.67432 0.71378 0.83476 0.0
H107 H 0.83526 0.71994 0.7831 0.0
H108 H 0.71022 0.61444 0.81682 0.0
S109 S 0.70894 0.94892 0.83774 0.0
N110 N 0.78842 0.95626 0.81269 0.0
N111 N 0.65193 0.84097 0.84937 0.0
C112 C 0.69652 0.80573 0.83256 0.0
C113 C 0.77108 0.86835 0.81275 0.0
C114 C 0.06506 0.78872 0.13415 0.0
C115 C 0.99662 0.81257 0.13101 0.0
C116 C 0.05253 0.71627 0.15384 0.0
C117 C 0.97111 0.66411 0.17145 0.0
H118 H 0.12933 0.82668 0.12149 0.0
H119 H 0.10857 0.70212 0.1556 0.0
S120 S 0.76827 0.69532 0.17042 0.0
N121 N 0.84208 0.77557 0.14613 0.0
N122 N 0.81941 0.63949 0.18346 0.0
C123 C 0.90076 0.68523 0.16788 0.0
C124 C 0.91353 0.75954 0.14768 0.0
C125 C 0.29927 0.05113 0.46299 0.0
C126 C 0.20593 0.9851 0.46225 0.0
C127 C 0.36104 0.03921 0.48199 0.0
C128 C 0.33252 0.96075 0.50122 0.0
H129 H 0.32506 0.1134 0.44907 0.0
H130 H 0.43192 0.09355 0.48214 0.0
S131 S 0.09633 0.76412 0.50643 0.0
N132 N 0.08823 0.83526 0.48115 0.0
N133 N 0.20516 0.81383 0.5172 0.0
C134 C 0.24006 0.8923 0.49986 0.0
C135 C 0.1766 0.90441 0.4804 0.0
C136 C 0.26951 0.27987 0.79768 0.0
C137 C 0.24241 0.18649 0.79643 0.0
C138 C 0.34341 0.34096 0.81675 0.0
C139 C 0.39378 0.31172 0.83554 0.0
H140 H 0.23286 0.30624 0.78405 0.0
H141 H 0.35992 0.41193 0.81723 0.0
S142 S 0.3541 0.0749 0.83962 0.0
N143 N 0.27459 0.06782 0.81457 0.0
N144 N 0.41341 0.18346 0.85076 0.0
C145 C 0.36966 0.21912 0.83378 0.0
C146 C 0.29388 0.15636 0.81424 0.0
C147 C 0.77725 0.91478 0.65411 0.0
C148 C 0.83076 0.99598 0.67192 0.0
C149 C 0.70406 0.90373 0.63456 0.0
C150 C 0.68185 0.97362 0.63212 0.0
H151 H 0.79255 0.85947 0.65495 0.0
H152 H 0.6668 0.84152 0.62052 0.0
S153 S 0.79588 0.19666 0.67588 0.0
N154 N 0.85297 0.14522 0.687 0.0
N155 N 0.71571 0.12463 0.65104 0.0
C156 C 0.73297 0.0538 0.65075 0.0
C157 C 0.80736 0.06506 0.6704 0.0
C158 C 0.76811 0.77756 0.00457 0.0
C159 C 0.86215 0.80732 0.00489 0.0
C160 C 0.70731 0.70319 0.9856 0.0
C161 C 0.73756 0.65503 0.96597 0.0
H162 H 0.74094 0.81246 0.01887 0.0
H163 H 0.63576 0.68461 0.9858 0.0
S164 S 0.97658 0.7024 0.9591 0.0
N165 N 0.98268 0.7802 0.98486 0.0
N166 N 0.86755 0.64048 0.94885 0.0
C167 C 0.8309 0.68178 0.96679 0.0
C168 C 0.89336 0.75803 0.98624 0.0
C169 C 0.13493 0.87224 0.31768 0.0
C170 C 0.06521 0.83921 0.34116 0.0
C171 C 0.1511 0.81202 0.29887 0.0
C172 C 0.09848 0.71689 0.30314 0.0
H173 H 0.17545 0.94502 0.31307 0.0
H174 H 0.20126 0.83973 0.27975 0.0
S175 S 0.91753 0.59616 0.36442 0.0
N176 N 0.95013 0.70541 0.36969 0.0
N177 N 0.98076 0.59292 0.33467 0.0
C178 C 0.03263 0.68359 0.32782 0.0
C179 C 1.01578 0.74446 0.34671 0.0
C180 C 0.28271 0.12251 0.65115 0.0
C181 C 0.24345 0.0483 0.67282 0.0
C182 C 0.35829 0.1394 0.6319 0.0
C183 C 0.39736 0.08284 0.63383 0.0
H184 H 0.25345 0.16665 0.64841 0.0
H185 H 0.38323 0.19406 0.61439 0.0
S186 S 0.32885 0.88769 0.68972 0.0
N187 N 0.25547 0.9235 0.69702 0.0
N188 N 0.39724 0.95547 0.66133 0.0
C189 C 0.36186 1.01164 0.65663 0.0
C190 C 0.28492 0.99416 0.67596 0.0
C191 C 0.30194 0.25246 0.00481 0.0
C192 C 0.20886 0.2266 0.00597 0.0
C193 C 0.3634 0.32525 0.98555 0.0
C194 C 0.33485 0.37582 0.96656 0.0
H195 H 0.32767 0.21549 0.01856 0.0
H196 H 0.43404 0.34072 0.98508 0.0
S197 S 0.09924 0.33952 0.96228 0.0
N198 N 0.09142 0.2604 0.98752 0.0
N199 N 0.20765 0.39712 0.95115 0.0
C200 C 0.24265 0.35305 0.9683 0.0
C201 C 0.17955 0.27837 0.98794 0.0
C202 C 0.05676 0.28503 0.33926 0.0
C203 C 0.99303 0.19093 0.33891 0.0
C204 C 0.04311 0.34648 0.32079 0.0
C205 C 0.96517 0.31683 0.30105 0.0
H206 H 0.11849 0.31172 0.35367 0.0
H207 H 0.09574 0.41806 0.32139 0.0
S208 S 0.7747 0.0781 0.29268 0.0
N209 N 0.8461 0.07111 0.31824 0.0
N210 N 0.82146 0.18749 0.2832 0.0
C211 C 0.89898 0.2235 0.30129 0.0
C212 C 0.91284 0.16037 0.32019 0.0
loop_
_geom_bond_atom_site_label_1
_geom_bond_atom_site_label_2
_geom_bond_distance
_geom_bond_site_symmetry_2
_ccdc_geom_bond_type
In0 O1 2.294 1_455 S
In0 O2 2.326 . S
In0 O6 2.266 1_445 S
In0 O7 2.326 1_445 S
In0 O8 2.266 1_545 S
In0 O9 2.326 1_445 S
In0 O11 2.294 . S
In0 O12 2.326 . S
O1 In0 2.294 1_655 S
O1 C10 1.240 1_655 S
O2 In0 2.326 . S
O2 C10 1.252 . S
C3 O6 1.252 . S
C3 O7 1.260 . S
C4 O11 1.240 . S
C4 O12 1.252 . S
C5 O8 1.250 1_655 S
C5 O9 1.263 . S
O6 In0 2.266 1_665 S
O6 C3 1.252 . S
O7 In0 2.326 1_665 S
O7 C3 1.260 . S
O8 In0 2.266 1_565 S
O8 C5 1.250 1_455 S
O9 In0 2.326 1_665 S
O9 C5 1.263 . S
C10 O1 1.240 1_455 S
C10 O2 1.252 . S
O11 In0 2.294 . S
O11 C4 1.240 . S
O12 In0 2.326 . S
O12 C4 1.252 . S
In13 O14 2.294 . S
In13 O15 2.326 1_455 S
In13 O19 2.266 . S
In13 O20 2.326 1_545 S
In13 O21 2.266 1_445 S
In13 O22 2.326 1_545 S
In13 O24 2.294 1_445 S
In13 O25 2.326 1_455 S
O14 In13 2.294 . S
O14 C23 1.240 1_455 S
O15 In13 2.326 1_655 S
O15 C23 1.252 . S
C16 O19 1.252 1_565 S
C16 O20 1.260 . S
C17 O24 1.240 1_545 S
C17 O25 1.252 . S
C18 O21 1.252 1_455 S
C18 O22 1.260 . S
O19 In13 2.266 . S
O19 C16 1.252 1_545 S
O20 In13 2.326 1_565 S
O20 C16 1.260 . S
O21 In13 2.266 1_665 S
O21 C18 1.252 1_655 S
O22 In13 2.326 1_565 S
O22 C18 1.260 . S
C23 O14 1.240 1_655 S
C23 O15 1.252 . S
O24 In13 2.294 1_665 S
O24 C17 1.240 1_565 S
O25 In13 2.326 1_655 S
O25 C17 1.252 . S
In26 O27 2.294 1_445 S
In26 O28 2.326 1_445 S
In26 O32 2.266 1_545 S
In26 O33 2.326 . S
In26 O34 2.266 . S
In26 O35 2.326 . S
In26 O37 2.294 1_455 S
In26 O38 2.326 1_445 S
O27 In26 2.294 1_665 S
O27 C36 1.240 . S
O28 In26 2.326 1_665 S
O28 C36 1.252 . S
C29 O32 1.252 1_545 S
C29 O33 1.260 . S
C30 O37 1.240 1_565 S
C30 O38 1.252 . S
C31 O34 1.252 . S
C31 O35 1.260 . S
O32 In26 2.266 1_565 S
O32 C29 1.252 1_565 S
O33 In26 2.326 . S
O33 C29 1.260 . S
O34 In26 2.266 . S
O34 C31 1.252 . S
O35 In26 2.326 . S
O35 C31 1.260 . S
C36 O27 1.240 . S
C36 O28 1.252 . S
O37 In26 2.294 1_655 S
O37 C30 1.240 1_545 S
O38 In26 2.326 1_665 S
O38 C30 1.252 . S
C39 O41 1.247 . S
C39 O43 1.258 1_455 S
C40 O47 1.247 1_455 S
C40 O48 1.258 . S
O41 C39 1.247 . S
O41 Zn42 2.028 . S
Zn42 O41 2.028 . S
Zn42 O46 2.035 . S
Zn42 O48 2.035 . S
Zn42 O49 2.028 . S
O43 C39 1.258 1_655 S
O43 Zn44 2.035 . S
Zn44 O43 2.035 . S
Zn44 O45 2.028 . S
Zn44 O47 2.028 . S
Zn44 O50 2.035 . S
O45 Zn44 2.028 . S
O45 C51 1.247 1_655 S
O46 Zn42 2.035 . S
O46 C51 1.258 . S
O47 C40 1.247 1_655 S
O47 Zn44 2.028 . S
O48 C40 1.258 . S
O48 Zn42 2.035 . S
O49 Zn42 2.028 . S
O49 C52 1.247 . S
O50 Zn44 2.035 . S
O50 C52 1.258 1_655 S
C51 O45 1.247 1_455 S
C51 O46 1.258 . S
C52 O49 1.247 . S
C52 O50 1.258 1_455 S
C53 O55 1.247 1_545 S
C53 O57 1.258 . S
C54 O61 1.247 . S
C54 O62 1.258 1_545 S
O55 C53 1.247 1_565 S
O55 Zn56 2.028 . S
Zn56 O55 2.028 . S
Zn56 O60 2.035 . S
Zn56 O62 2.035 . S
Zn56 O63 2.028 . S
O57 C53 1.258 . S
O57 Zn58 2.035 . S
Zn58 O57 2.035 . S
Zn58 O59 2.028 . S
Zn58 O61 2.028 . S
Zn58 O64 2.035 . S
O59 Zn58 2.028 . S
O59 C65 1.247 . S
O60 Zn56 2.035 . S
O60 C65 1.258 1_565 S
O61 C54 1.247 . S
O61 Zn58 2.028 . S
O62 C54 1.258 1_565 S
O62 Zn56 2.035 . S
O63 Zn56 2.028 . S
O63 C66 1.247 1_565 S
O64 Zn58 2.035 . S
O64 C66 1.258 . S
C65 O59 1.247 . S
C65 O60 1.258 1_545 S
C66 O63 1.247 1_545 S
C66 O64 1.258 . S
C67 O69 1.247 . S
C67 O71 1.258 . S
C68 O75 1.247 . S
C68 O76 1.258 . S
O69 C67 1.247 . S
O69 Zn70 2.028 . S
Zn70 O69 2.028 . S
Zn70 O74 2.035 . S
Zn70 O76 2.035 . S
Zn70 O77 2.028 . S
O71 C67 1.258 . S
O71 Zn72 2.035 . S
Zn72 O71 2.035 . S
Zn72 O73 2.028 . S
Zn72 O75 2.028 . S
Zn72 O78 2.035 . S
O73 Zn72 2.028 . S
O73 C79 1.247 . S
O74 Zn70 2.035 . S
O74 C79 1.258 . S
O75 C68 1.247 . S
O75 Zn72 2.028 . S
O76 C68 1.258 . S
O76 Zn70 2.035 . S
O77 Zn70 2.028 . S
O77 C80 1.247 . S
O78 Zn72 2.035 . S
O78 C80 1.258 . S
C79 O73 1.247 . S
C79 O74 1.258 . S
C80 O77 1.247 . S
C80 O78 1.258 . S
C81 C82 1.369 . S
C81 C83 1.419 . S
C81 H85 0.930 . S
C82 C81 1.369 . S
C82 C91 1.429 1_455 S
C83 C81 1.419 . S
C83 C84 1.363 . S
C83 H86 0.929 . S
C84 C83 1.363 . S
C84 C90 1.428 1_455 S
H85 C81 0.930 . S
H86 C83 0.929 . S
S87 N88 1.613 . S
S87 N89 1.610 . S
N88 S87 1.613 . S
N88 C91 1.350 . S
N89 S87 1.610 . S
N89 C90 1.351 . S
C90 C84 1.428 1_655 S
C90 N89 1.351 . S
C90 C91 1.434 . S
C91 C82 1.429 1_655 S
C91 N88 1.350 . S
C91 C90 1.434 . S
C92 C93 1.369 1_565 S
C92 C94 1.419 . S
C92 H96 0.930 . S
C93 C92 1.369 1_545 S
C93 C102 1.429 . S
C94 C92 1.419 . S
C94 C95 1.363 1_565 S
C94 H97 0.929 . S
C95 C94 1.363 1_545 S
C95 C101 1.428 . S
H96 C92 0.930 . S
H97 C94 0.929 . S
S98 N99 1.613 . S
S98 N100 1.610 . S
N99 S98 1.613 . S
N99 C102 1.350 . S
N100 S98 1.610 . S
N100 C101 1.351 . S
C101 C95 1.428 . S
C101 N100 1.351 . S
C101 C102 1.434 . S
C102 C93 1.429 . S
C102 N99 1.350 . S
C102 C101 1.434 . S
C103 C104 1.369 . S
C103 C105 1.419 . S
C103 H107 0.930 . S
C104 C103 1.369 . S
C104 C113 1.429 . S
C105 C103 1.419 . S
C105 C106 1.363 . S
C105 H108 0.929 . S
C106 C105 1.363 . S
C106 C112 1.428 . S
H107 C103 0.930 . S
H108 C105 0.929 . S
S109 N110 1.613 . S
S109 N111 1.610 . S
N110 S109 1.613 . S
N110 C113 1.350 . S
N111 S109 1.610 . S
N111 C112 1.351 . S
C112 C106 1.428 . S
C112 N111 1.351 . S
C112 C113 1.434 . S
C113 C104 1.429 . S
C113 N110 1.350 . S
C113 C112 1.434 . S
C114 C115 1.369 . S
C114 C116 1.419 . S
C114 H118 0.930 . S
C115 C114 1.369 . S
C115 C124 1.429 1_455 S
C116 C114 1.419 . S
C116 C117 1.363 . S
C116 H119 0.929 . S
C117 C116 1.363 . S
C117 C123 1.428 1_455 S
H118 C114 0.930 . S
H119 C116 0.929 . S
S120 N121 1.613 . S
S120 N122 1.610 . S
N121 S120 1.613 . S
N121 C124 1.350 . S
N122 S120 1.610 . S
N122 C123 1.351 . S
C123 C117 1.428 1_655 S
C123 N122 1.351 . S
C123 C124 1.434 . S
C124 C115 1.429 1_655 S
C124 N121 1.350 . S
C124 C123 1.434 . S
C125 C126 1.369 1_545 S
C125 C127 1.419 . S
C125 H129 0.930 . S
C126 C125 1.369 1_565 S
C126 C135 1.429 . S
C127 C125 1.419 . S
C127 C128 1.363 . S
C127 H130 0.929 . S
C128 C127 1.363 . S
C128 C134 1.428 1_545 S
H129 C125 0.930 . S
H130 C127 0.929 . S
S131 N132 1.613 . S
S131 N133 1.610 . S
N132 S131 1.613 . S
N132 C135 1.350 . S
N133 S131 1.610 . S
N133 C134 1.351 . S
C134 C128 1.428 1_565 S
C134 N133 1.351 . S
C134 C135 1.434 . S
C135 C126 1.429 . S
C135 N132 1.350 . S
C135 C134 1.434 . S
C136 C137 1.369 . S
C136 C138 1.419 . S
C136 H140 0.930 . S
C137 C136 1.369 . S
C137 C146 1.429 . S
C138 C136 1.419 . S
C138 C139 1.363 . S
C138 H141 0.929 . S
C139 C138 1.363 . S
C139 C145 1.428 . S
H140 C136 0.930 . S
H141 C138 0.929 . S
S142 N143 1.613 . S
S142 N144 1.610 . S
N143 S142 1.613 . S
N143 C146 1.350 . S
N144 S142 1.610 . S
N144 C145 1.351 . S
C145 C139 1.428 . S
C145 N144 1.351 . S
C145 C146 1.434 . S
C146 C137 1.429 . S
C146 N143 1.350 . S
C146 C145 1.434 . S
C147 C148 1.369 . S
C147 C149 1.419 . S
C147 H151 0.930 . S
C148 C147 1.369 . S
C148 C157 1.429 1_565 S
C149 C147 1.419 . S
C149 C150 1.363 1_565 S
C149 H152 0.929 . S
C150 C149 1.363 1_545 S
C150 C156 1.428 . S
H151 C147 0.930 . S
H152 C149 0.929 . S
S153 N154 1.613 . S
S153 N155 1.610 . S
N154 S153 1.613 . S
N154 C157 1.350 . S
N155 S153 1.610 . S
N155 C156 1.351 . S
C156 C150 1.428 . S
C156 N155 1.351 . S
C156 C157 1.434 . S
C157 C148 1.429 1_545 S
C157 N154 1.350 . S
C157 C156 1.434 . S
C158 C159 1.369 . S
C158 C160 1.419 1_554 S
C158 H162 0.930 . S
C159 C158 1.369 . S
C159 C168 1.429 1_554 S
C160 C158 1.419 1_556 S
C160 C161 1.363 . S
C160 H163 0.929 1_556 S
C161 C160 1.363 . S
C161 C167 1.428 . S
H162 C158 0.930 . S
H163 C160 0.929 1_554 S
S164 N165 1.613 . S
S164 N166 1.610 . S
N165 S164 1.613 . S
N165 C168 1.350 . S
N166 S164 1.610 . S
N166 C167 1.351 . S
C167 C161 1.428 . S
C167 N166 1.351 . S
C167 C168 1.434 . S
C168 C159 1.429 1_556 S
C168 N165 1.350 . S
C168 C167 1.434 . S
C169 C170 1.369 . S
C169 C171 1.419 . S
C169 H173 0.930 . S
C170 C169 1.369 . S
C170 C179 1.429 1_455 S
C171 C169 1.419 . S
C171 C172 1.363 . S
C171 H174 0.929 . S
C172 C171 1.363 . S
C172 C178 1.428 1_455 S
H173 C169 0.930 . S
H174 C171 0.929 . S
S175 N176 1.613 . S
S175 N177 1.610 . S
N176 S175 1.613 . S
N176 C179 1.350 . S
N177 S175 1.610 . S
N177 C178 1.351 . S
C178 C172 1.428 1_655 S
C178 N177 1.351 . S
C178 C179 1.434 . S
C179 C170 1.429 1_655 S
C179 N176 1.350 . S
C179 C178 1.434 . S
C180 C181 1.369 . S
C180 C182 1.419 . S
C180 H184 0.930 . S
C181 C180 1.369 . S
C181 C190 1.429 1_545 S
C182 C180 1.419 . S
C182 C183 1.363 . S
C182 H185 0.929 . S
C183 C182 1.363 . S
C183 C189 1.428 1_545 S
H184 C180 0.930 . S
H185 C182 0.929 . S
S186 N187 1.613 . S
S186 N188 1.610 . S
N187 S186 1.613 . S
N187 C190 1.350 . S
N188 S186 1.610 . S
N188 C189 1.351 . S
C189 C183 1.428 1_565 S
C189 N188 1.351 . S
C189 C190 1.434 . S
C190 C181 1.429 1_565 S
C190 N187 1.350 . S
C190 C189 1.434 . S
C191 C192 1.369 . S
C191 C193 1.419 1_554 S
C191 H195 0.930 . S
C192 C191 1.369 . S
C192 C201 1.429 1_554 S
C193 C191 1.419 1_556 S
C193 C194 1.363 . S
C193 H196 0.929 . S
C194 C193 1.363 . S
C194 C200 1.428 . S
H195 C191 0.930 . S
H196 C193 0.929 . S
S197 N198 1.613 . S
S197 N199 1.610 . S
N198 S197 1.613 . S
N198 C201 1.350 . S
N199 S197 1.610 . S
N199 C200 1.351 . S
C200 C194 1.428 . S
C200 N199 1.351 . S
C200 C201 1.434 . S
C201 C192 1.429 1_556 S
C201 N198 1.350 . S
C201 C200 1.434 . S
C202 C203 1.369 1_455 S
C202 C204 1.419 . S
C202 H206 0.930 . S
C203 C202 1.369 1_655 S
C203 C212 1.429 . S
C204 C202 1.419 . S
C204 C205 1.363 . S
C204 H207 0.929 . S
C205 C204 1.363 . S
C205 C211 1.428 1_455 S
H206 C202 0.930 . S
H207 C204 0.929 . S
S208 N209 1.613 . S
S208 N210 1.610 . S
N209 S208 1.613 . S
N209 C212 1.350 . S
N210 S208 1.610 . S
N210 C211 1.351 . S
C211 C205 1.428 1_655 S
C211 N210 1.351 . S
C211 C212 1.434 . S
C212 C203 1.429 . S
C212 N209 1.350 . S
C212 C211 1.434 . S
C84 C40 1.499 . S
C82 C10 1.499 . S
C93 C17 1.499 . S
C95 C66 1.499 . S
C104 C36 1.500 . S
C106 C68 1.499 . S
C115 C5 1.500 1_455 S
C117 C52 1.501 . S
C128 C54 1.501 . S
C126 C16 1.501 . S
C137 C31 1.500 . S
C139 C80 1.500 . S
C150 C53 1.499 . S
C148 C30 1.499 . S
C159 C3 1.500 . S
C161 C79 1.500 . S
C172 C39 1.501 . S
C170 C18 1.501 . S
C183 C65 1.500 . S
C181 C29 1.501 . S
C194 C67 1.499 . S
C192 C4 1.500 . S
C203 C23 1.499 . S
C205 C51 1.499 . S
