# Generated by pormake.
# Topology rtl, (3,6)-cn, num edge types: 1
# Building blocks:
#     Node 0, Type 0, BuildingBlock: OLANEW_clean_sbu_2, # of connection points: 3
#     Node 1, Type 0, BuildingBlock: OLANEW_clean_sbu_2, # of connection points: 3
#     Node 2, Type 0, BuildingBlock: OLANEW_clean_sbu_2, # of connection points: 3
#     Node 3, Type 0, BuildingBlock: OLANEW_clean_sbu_2, # of connection points: 3
#     Node 4, Type 1, BuildingBlock: VOLQOD_clean_sbu_1, # of connection points: 6
#     Node 5, Type 1, BuildingBlock: VOLQOD_clean_sbu_1, # of connection points: 6
#     Edge 6, Type (0, 1), BuildingBlock: AJUNOK_clean_linker_0, # of connection points: 2
#     Edge 7, Type (0, 1), BuildingBlock: AJUNOK_clean_linker_0, # of connection points: 2
#     Edge 8, Type (0, 1), BuildingBlock: AJUNOK_clean_linker_0, # of connection points: 2
#     Edge 9, Type (0, 1), BuildingBlock: AJUNOK_clean_linker_0, # of connection points: 2
#     Edge 10, Type (0, 1), BuildingBlock: AJUNOK_clean_linker_0, # of connection points: 2
#     Edge 11, Type (0, 1), BuildingBlock: AJUNOK_clean_linker_0, # of connection points: 2
#     Edge 12, Type (0, 1), BuildingBlock: AJUNOK_clean_linker_0, # of connection points: 2
#     Edge 13, Type (0, 1), BuildingBlock: AJUNOK_clean_linker_0, # of connection points: 2
#     Edge 14, Type (0, 1), BuildingBlock: AJUNOK_clean_linker_0, # of connection points: 2
#     Edge 15, Type (0, 1), BuildingBlock: AJUNOK_clean_linker_0, # of connection points: 2
#     Edge 16, Type (0, 1), BuildingBlock: AJUNOK_clean_linker_0, # of connection points: 2
#     Edge 17, Type (0, 1), BuildingBlock: AJUNOK_clean_linker_0, # of connection points: 2
# Relax obj value: 0.056
# Max RMSD: 0.146
# Mean RMSD: 0.097
data_MOF--net-rtl--node1-OLANEW_clean_sbu_2--node2-VOLQOD_clean_sbu_1--edge1-AJUNOK_clean_linker_0
_symmetry_space_group_name_H-M    P1
_symmetry_Int_Tables_number       1
_symmetry_cell_setting            triclinic
loop_
_symmetry_equiv_pos_as_xyz
'x, y, z'
_cell_length_a     31.357543
_cell_length_b     29.542509
_cell_length_c     18.063507
_cell_angle_alpha  86.634822
_cell_angle_beta   93.844901
_cell_angle_gamma 89.992636
loop_
_atom_site_label
_atom_site_type_symbol
_atom_site_fract_x
_atom_site_fract_y
_atom_site_fract_z
_atom_type_partial_charge
O0 O 0.13777 0.77431 0.9305 0.0
Cd1 Cd 0.18943 0.75727 0.03524 0.0
O2 O 0.15488 0.83732 0.98067 0.0
Cd3 Cd 0.19147 0.8726 0.06357 0.0
O4 O 0.16226 0.86399 0.168 0.0
C5 C 0.12219 0.87093 0.16393 0.0
O6 O 0.10303 0.88212 0.0984 0.0
C7 C 0.13325 0.81666 0.93172 0.0
C8 C 0.26012 0.7028 0.01687 0.0
O9 O 0.22528 0.69827 0.97737 0.0
O10 O 0.26245 0.7344 0.0623 0.0
O11 O 0.63855 0.73515 0.64035 0.0
Cd12 Cd 0.67881 0.76936 0.54035 0.0
O13 O 0.65326 0.66727 0.60245 0.0
Cd14 Cd 0.69453 0.66983 0.51155 0.0
O15 O 0.66314 0.66547 0.40271 0.0
C16 C 0.62299 0.65956 0.40137 0.0
O17 O 0.60409 0.65662 0.46432 0.0
C18 C 0.63394 0.69239 0.64428 0.0
C19 C 0.7566 0.81502 0.56137 0.0
O20 O 0.72284 0.82853 0.58986 0.0
O21 O 0.75426 0.77824 0.52711 0.0
O22 O 0.84275 0.21552 0.14429 0.0
Cd23 Cd 0.83539 0.28945 0.07475 0.0
O24 O 0.91155 0.225 0.13264 0.0
Cd25 Cd 0.90164 0.26229 0.02448 0.0
O26 O 0.90219 0.22922 0.91931 0.0
C27 C 0.91661 0.18899 0.93008 0.0
O28 O 0.92895 0.17409 -0.0019 0.0
C29 C 0.88123 0.20458 0.16392 0.0
C30 C 0.75518 0.33216 0.05594 0.0
O31 O 0.76752 0.3115 0.11782 0.0
O32 O 0.78032 0.33236 0.00309 0.0
O33 O 0.36145 0.28047 0.66208 0.0
Cd34 Cd 0.32269 0.24627 0.55697 0.0
O35 O 0.34336 0.34381 0.59822 0.0
Cd36 Cd 0.30213 0.35018 0.49802 0.0
O37 O 0.33956 0.35313 0.40188 0.0
C38 C 0.37761 0.36725 0.41304 0.0
O39 O 0.39026 0.37961 0.47971 0.0
C40 C 0.36391 0.32329 0.65298 0.0
C41 C 0.24538 0.19994 0.57014 0.0
O42 O 0.28036 0.18504 0.60359 0.0
O43 O 0.24627 0.23835 0.53335 0.0
O44 O 0.90212 0.97346 0.56991 0.0
Zn45 Zn 0.94121 0.02695 0.55346 0.0
O46 O 0.00039 0.00739 0.55056 0.0
Zn47 Zn 0.03495 0.02329 0.6376 0.0
Zn48 Zn -0.00038 0.94187 0.54746 0.0
Zn49 Zn 0.02635 0.03627 0.46575 0.0
O50 O 0.08877 0.05725 0.61324 0.0
O51 O 0.072 0.08223 0.49648 0.0
O52 O 0.93676 0.06786 0.63918 0.0
O53 O 0.00152 0.06341 0.69706 0.0
O54 O 0.0497 0.96851 0.7033 0.0
O55 O 0.02075 0.91048 0.64575 0.0
O56 O 0.03569 0.92303 0.4671 0.0
O57 O 0.92032 0.06005 0.45471 0.0
O58 O 0.05325 0.98838 0.40883 0.0
O59 O 0.98082 0.06739 0.39749 0.0
C60 C 0.90539 0.93304 0.54989 0.0
C61 C 0.09602 0.08281 0.55627 0.0
C62 C 0.04054 0.92665 0.70197 0.0
C63 C 0.96331 0.07833 0.69211 0.0
C64 C 0.0546 0.94521 0.41653 0.0
C65 C 0.94061 0.07331 0.39848 0.0
O66 O 0.94036 0.91859 0.52817 0.0
O67 O 0.6003 0.47563 -0.0066 0.0
Zn68 Zn 0.55949 0.52811 -0.00114 0.0
O69 O 0.50094 0.50843 0.00176 0.0
Zn70 Zn 0.46652 0.53144 0.91342 0.0
Zn71 Zn 0.50128 0.44225 0.01537 0.0
Zn72 Zn 0.47623 0.53342 0.08408 0.0
O73 O 0.41259 0.56477 0.93982 0.0
O74 O 0.43153 0.57883 0.05636 0.0
O75 O 0.56303 0.56941 0.91014 0.0
O76 O 0.50007 0.57457 0.84615 0.0
O77 O 0.45162 0.47707 0.85672 0.0
O78 O 0.47651 0.41524 0.92154 0.0
O79 O 0.46739 0.42139 0.10271 0.0
O80 O 0.57942 0.56191 0.08954 0.0
O81 O 0.45122 0.48657 0.14974 0.0
O82 O 0.51909 0.56173 0.14709 0.0
C83 C 0.59699 0.43433 0.01648 0.0
C84 C 0.40589 0.58417 -0.00063 0.0
C85 C 0.45751 0.43427 0.86323 0.0
C86 C 0.53944 0.5851 0.85458 0.0
C87 C 0.45038 0.44363 0.15143 0.0
C88 C 0.55814 0.57148 0.1442 0.0
O89 O 0.56154 0.41765 0.03495 0.0
C90 C 0.20982 0.12457 0.58693 0.0
C91 C 0.20619 0.17161 0.56946 0.0
C92 C 0.17398 0.09616 0.58273 0.0
C93 C 0.1332 0.11359 0.56009 0.0
H94 H 0.24074 0.10929 0.60288 0.0
H95 H 0.17832 0.06015 0.59616 0.0
S96 S 0.10519 0.2346 0.5168 0.0
N97 N 0.15758 0.23466 0.53441 0.0
N98 N 0.09038 0.18098 0.52579 0.0
C99 C 0.12878 0.16054 0.54406 0.0
C100 C 0.16523 0.18962 0.54889 0.0
C101 C 0.3077 0.65715 0.94427 0.0
C102 C 0.29584 0.67102 0.01316 0.0
C103 C 0.34309 0.62857 0.94004 0.0
C104 C 0.36738 0.61262 0.0047 0.0
H105 H 0.29022 0.66945 0.89325 0.0
H106 H 0.35189 0.61966 0.88575 0.0
S107 S 0.3439 0.63326 0.19985 0.0
N108 N 0.30726 0.66274 0.14766 0.0
N109 N 0.37356 0.60916 0.14088 0.0
C110 C 0.35417 0.62461 0.07446 0.0
C111 C 0.31837 0.65376 0.0784 0.0
C112 C 0.79366 0.88883 0.58088 0.0
C113 C 0.79582 0.84324 0.5625 0.0
C114 C 0.8291 0.91755 0.57651 0.0
C115 C 0.86831 0.90185 0.55391 0.0
H116 H 0.76406 0.90288 0.59731 0.0
H117 H 0.82549 0.95244 0.59053 0.0
S118 S 0.89174 0.78433 0.50463 0.0
N119 N 0.84099 0.78321 0.52368 0.0
N120 N 0.9077 0.83677 0.51647 0.0
C121 C 0.87122 0.85598 0.53702 0.0
C122 C 0.83501 0.82682 0.54104 0.0
C123 C 0.6969 0.37696 0.10573 0.0
C124 C 0.71352 0.35579 0.04594 0.0
C125 C 0.65866 0.40195 0.09582 0.0
C126 C 0.63574 0.40605 0.02615 0.0
H127 H 0.7141 0.37522 0.15991 0.0
H128 H 0.64725 0.41871 0.14255 0.0
S129 S 0.66333 0.35327 0.85421 0.0
N130 N 0.70264 0.33811 0.9162 0.0
N131 N 0.63067 0.38486 0.89785 0.0
C132 C 0.65124 0.38399 0.96663 0.0
C133 C 0.69023 0.35885 0.97652 0.0
C134 C 0.12496 0.87791 0.30128 0.0
C135 C 0.10063 0.87858 0.23251 0.0
C136 C 0.10973 0.89861 0.3623 0.0
C137 C 0.06979 0.92026 0.35595 0.0
H138 H 0.15712 0.86414 0.3067 0.0
H139 H 0.12994 0.89945 0.41328 0.0
S140 S 0.9891 0.92063 0.19676 0.0
N141 N 0.0306 0.89358 0.16845 0.0
N142 N 0.00341 0.93491 0.28186 0.0
C143 C 0.04355 0.91715 0.29066 0.0
C144 C 0.05844 0.89518 0.22931 0.0
C145 C 0.56569 0.67829 0.70886 0.0
C146 C 0.60923 0.66893 0.70099 0.0
C147 C 0.5417 0.65013 0.75646 0.0
C148 C 0.56101 0.61236 0.79699 0.0
H149 H 0.5501 0.70666 0.67724 0.0
H150 H 0.50853 0.65841 0.7628 0.0
S151 S 0.67254 0.57179 0.78776 0.0
N152 N 0.66934 0.61859 0.73348 0.0
N153 N 0.62477 0.56528 0.81958 0.0
C154 C 0.6039 0.60228 0.78641 0.0
C155 C 0.62791 0.63078 0.73951 0.0
C156 C 0.92392 0.18122 0.27983 0.0
C157 C 0.89163 0.17082 0.22603 0.0
C158 C 0.93788 0.14939 0.33636 0.0
C159 C 0.92042 0.10569 0.34134 0.0
H160 H 0.939 0.21423 0.27769 0.0
H161 H 0.96334 0.15887 0.37602 0.0
S162 S 0.83567 0.06071 0.21202 0.0
N163 N 0.84236 0.11368 0.18007 0.0
N164 N 0.86913 0.05297 0.28663 0.0
C165 C 0.88745 0.09461 0.28852 0.0
C166 C 0.8729 0.12751 0.23071 0.0
C167 C 0.42152 0.33167 0.75656 0.0
C168 C 0.39116 0.35111 0.70293 0.0
C169 C 0.44488 0.35889 0.80625 0.0
C170 C 0.43852 0.4063 0.8038 0.0
H171 H 0.4265 0.2953 0.76138 0.0
H172 H 0.46684 0.34251 0.84837 0.0
S173 S 0.36821 0.47425 0.66482 0.0
N174 N 0.36051 0.42128 0.64426 0.0
N175 N 0.40365 0.47163 0.73644 0.0
C176 C 0.41085 0.42616 0.74633 0.0
C177 C 0.38735 0.39875 0.69628 0.0
C178 C 0.58068 0.60022 0.3417 0.0
C179 C 0.6017 0.64196 0.33464 0.0
C180 C 0.56896 0.57656 0.27911 0.0
C181 C 0.57748 0.59409 0.20757 0.0
H182 H 0.57514 0.58465 0.39605 0.0
H183 H 0.55298 0.54422 0.28663 0.0
S184 S 0.62324 0.70643 0.15871 0.0
N185 N 0.62489 0.70315 0.25062 0.0
N186 N 0.60283 0.65794 0.13206 0.0
C187 C 0.5964 0.63683 0.19927 0.0
C188 C 0.60823 0.66116 0.26321 0.0
C189 C 0.96909 0.14754 0.86323 0.0
C190 C 0.92681 0.16209 0.86743 0.0
C191 C 0.98051 0.12113 0.80583 0.0
C192 C 0.94989 0.10752 0.75079 0.0
H193 H 0.9937 0.15695 0.90448 0.0
H194 H 0.01372 0.1112 0.8051 0.0
S195 S 0.83366 0.13322 0.74174 0.0
N196 N 0.85354 0.15936 0.81478 0.0
N197 N 0.87466 0.10866 0.7073 0.0
C198 C 0.90713 0.12118 0.75539 0.0
C199 C 0.89564 0.14873 0.8136 0.0
C200 C 0.38914 0.36494 0.27783 0.0
C201 C 0.40327 0.37867 0.34887 0.0
C202 C 0.40546 0.38491 0.21336 0.0
C203 C 0.43572 0.41968 0.21832 0.0
H204 H 0.36373 0.34032 0.27171 0.0
H205 H 0.39283 0.37478 0.15953 0.0
S206 S 0.49048 0.46033 0.39038 0.0
N207 N 0.45628 0.42195 0.41999 0.0
N208 N 0.48354 0.46284 0.2988 0.0
C209 C 0.45247 0.43121 0.28882 0.0
C210 C 0.43744 0.40941 0.3543 0.0
C211 C 0.1284 0.87417 0.82859 0.0
C212 C 0.10743 0.84248 0.87364 0.0
C213 C 0.10585 0.90042 0.77277 0.0
C214 C 0.06146 0.89608 0.76014 0.0
H215 H 0.16269 0.87858 0.83642 0.0
H216 H 0.12342 0.92446 0.73896 0.0
S217 S 0.99078 0.8211 0.86955 0.0
N218 N 0.03953 0.80984 0.90695 0.0
N219 N -0.00358 0.85961 0.80052 0.0
C220 C 0.03957 0.86482 0.80562 0.0
C221 C 0.06283 0.83787 0.86307 0.0
loop_
_geom_bond_atom_site_label_1
_geom_bond_atom_site_label_2
_geom_bond_distance
_geom_bond_site_symmetry_2
_ccdc_geom_bond_type
O0 Cd1 2.300 1_556 S
O0 C7 1.275 . S
Cd1 O0 2.300 1_554 S
Cd1 O9 2.381 1_554 S
Cd1 O10 2.378 . S
O2 Cd3 2.385 1_556 S
O2 C7 1.255 . S
Cd3 O2 2.385 1_554 S
Cd3 O4 2.317 . S
O4 Cd3 2.317 . S
O4 C5 1.232 . S
C5 O4 1.232 . S
C5 O6 1.218 . S
O6 C5 1.218 . S
C7 O0 1.275 . S
C7 O2 1.255 . S
C8 O9 1.258 1_554 S
C8 O10 1.256 . S
O9 Cd1 2.381 1_556 S
O9 C8 1.258 1_556 S
O10 Cd1 2.378 . S
O10 C8 1.256 . S
O11 Cd12 2.300 . S
O11 C18 1.275 . S
Cd12 O11 2.300 . S
Cd12 O20 2.381 . S
Cd12 O21 2.378 . S
O13 Cd14 2.385 . S
O13 C18 1.255 . S
Cd14 O13 2.385 . S
Cd14 O15 2.317 . S
O15 Cd14 2.317 . S
O15 C16 1.232 . S
C16 O15 1.232 . S
C16 O17 1.218 . S
O17 C16 1.218 . S
C18 O11 1.275 . S
C18 O13 1.255 . S
C19 O20 1.258 . S
C19 O21 1.256 . S
O20 Cd12 2.381 . S
O20 C19 1.258 . S
O21 Cd12 2.378 . S
O21 C19 1.256 . S
O22 Cd23 2.300 . S
O22 C29 1.275 . S
Cd23 O22 2.300 . S
Cd23 O31 2.381 . S
Cd23 O32 2.378 . S
O24 Cd25 2.385 . S
O24 C29 1.255 . S
Cd25 O24 2.385 . S
Cd25 O26 2.317 1_554 S
O26 Cd25 2.317 1_556 S
O26 C27 1.232 . S
C27 O26 1.232 . S
C27 O28 1.218 . S
O28 C27 1.218 . S
C29 O22 1.275 . S
C29 O24 1.255 . S
C30 O31 1.258 . S
C30 O32 1.256 . S
O31 Cd23 2.381 . S
O31 C30 1.258 . S
O32 Cd23 2.378 . S
O32 C30 1.256 . S
O33 Cd34 2.300 . S
O33 C40 1.275 . S
Cd34 O33 2.300 . S
Cd34 O42 2.381 . S
Cd34 O43 2.378 . S
O35 Cd36 2.385 . S
O35 C40 1.255 . S
Cd36 O35 2.385 . S
Cd36 O37 2.317 . S
O37 Cd36 2.317 . S
O37 C38 1.232 . S
C38 O37 1.232 . S
C38 O39 1.218 . S
O39 C38 1.218 . S
C40 O33 1.275 . S
C40 O35 1.255 . S
C41 O42 1.258 . S
C41 O43 1.256 . S
O42 Cd34 2.381 . S
O42 C41 1.258 . S
O43 Cd34 2.378 . S
O43 C41 1.256 . S
O44 Zn45 1.953 1_565 S
O44 C60 1.225 . S
Zn45 O44 1.953 1_545 S
Zn45 O46 1.949 1_655 S
Zn45 O52 1.919 . S
Zn45 O57 1.924 . S
O46 Zn45 1.949 1_455 S
O46 Zn47 1.923 . S
O46 Zn48 1.950 1_545 S
O46 Zn49 1.945 . S
Zn47 O46 1.923 . S
Zn47 O50 1.933 . S
Zn47 O53 1.941 . S
Zn47 O54 1.965 1_545 S
Zn48 O46 1.950 1_565 S
Zn48 O55 1.938 . S
Zn48 O56 1.906 . S
Zn48 O66 1.953 1_455 S
Zn49 O46 1.945 . S
Zn49 O51 1.932 . S
Zn49 O58 1.978 . S
Zn49 O59 1.910 1_455 S
O50 Zn47 1.933 . S
O50 C61 1.226 . S
O51 Zn49 1.932 . S
O51 C61 1.307 . S
O52 Zn45 1.919 . S
O52 C63 1.253 . S
O53 Zn47 1.941 . S
O53 C63 1.283 1_455 S
O54 Zn47 1.965 1_565 S
O54 C62 1.303 . S
O55 Zn48 1.938 . S
O55 C62 1.247 . S
O56 Zn48 1.906 . S
O56 C64 1.304 . S
O57 Zn45 1.924 . S
O57 C65 1.311 . S
O58 Zn49 1.978 . S
O58 C64 1.270 1_545 S
O59 Zn49 1.910 1_655 S
O59 C65 1.231 . S
C60 O44 1.225 . S
C60 O66 1.298 . S
C61 O50 1.226 . S
C61 O51 1.307 . S
C62 O54 1.303 . S
C62 O55 1.247 . S
C63 O52 1.253 . S
C63 O53 1.283 1_655 S
C64 O56 1.304 . S
C64 O58 1.270 1_565 S
C65 O57 1.311 . S
C65 O59 1.231 . S
O66 Zn48 1.953 1_655 S
O66 C60 1.298 . S
O67 Zn68 1.953 . S
O67 C83 1.225 . S
Zn68 O67 1.953 . S
Zn68 O69 1.949 . S
Zn68 O75 1.919 1_554 S
Zn68 O80 1.924 . S
O69 Zn68 1.949 . S
O69 Zn70 1.923 1_554 S
O69 Zn71 1.950 . S
O69 Zn72 1.945 . S
Zn70 O69 1.923 1_556 S
Zn70 O73 1.933 . S
Zn70 O76 1.941 . S
Zn70 O77 1.965 . S
Zn71 O69 1.950 . S
Zn71 O78 1.938 1_554 S
Zn71 O79 1.906 . S
Zn71 O89 1.953 . S
Zn72 O69 1.945 . S
Zn72 O74 1.932 . S
Zn72 O81 1.977 . S
Zn72 O82 1.910 . S
O73 Zn70 1.933 . S
O73 C84 1.226 1_556 S
O74 Zn72 1.932 . S
O74 C84 1.307 . S
O75 Zn68 1.919 1_556 S
O75 C86 1.253 . S
O76 Zn70 1.941 . S
O76 C86 1.283 . S
O77 Zn70 1.965 . S
O77 C85 1.303 . S
O78 Zn71 1.938 1_556 S
O78 C85 1.247 . S
O79 Zn71 1.906 . S
O79 C87 1.304 . S
O80 Zn68 1.924 . S
O80 C88 1.311 . S
O81 Zn72 1.977 . S
O81 C87 1.272 . S
O82 Zn72 1.910 . S
O82 C88 1.231 . S
C83 O67 1.225 . S
C83 O89 1.298 . S
C84 O73 1.226 1_554 S
C84 O74 1.307 . S
C85 O77 1.303 . S
C85 O78 1.247 . S
C86 O75 1.253 . S
C86 O76 1.283 . S
C87 O79 1.304 . S
C87 O81 1.272 . S
C88 O80 1.311 . S
C88 O82 1.231 . S
O89 Zn71 1.953 . S
O89 C83 1.298 . S
C90 C91 1.369 . S
C90 C92 1.419 . S
C90 H94 0.930 . S
C91 C90 1.369 . S
C91 C100 1.429 . S
C92 C90 1.419 . S
C92 C93 1.363 . S
C92 H95 0.929 . S
C93 C92 1.363 . S
C93 C99 1.428 . S
H94 C90 0.930 . S
H95 C92 0.929 . S
S96 N97 1.613 . S
S96 N98 1.610 . S
N97 S96 1.613 . S
N97 C100 1.350 . S
N98 S96 1.610 . S
N98 C99 1.351 . S
C99 C93 1.428 . S
C99 N98 1.351 . S
C99 C100 1.434 . S
C100 C91 1.429 . S
C100 N97 1.350 . S
C100 C99 1.434 . S
C101 C102 1.369 1_556 S
C101 C103 1.419 . S
C101 H105 0.930 . S
C102 C101 1.369 1_554 S
C102 C111 1.429 . S
C103 C101 1.419 . S
C103 C104 1.363 1_556 S
C103 H106 0.929 . S
C104 C103 1.363 1_554 S
C104 C110 1.428 . S
H105 C101 0.930 . S
H106 C103 0.929 . S
S107 N108 1.613 . S
S107 N109 1.610 . S
N108 S107 1.613 . S
N108 C111 1.350 . S
N109 S107 1.610 . S
N109 C110 1.351 . S
C110 C104 1.428 . S
C110 N109 1.351 . S
C110 C111 1.434 . S
C111 C102 1.429 . S
C111 N108 1.350 . S
C111 C110 1.434 . S
C112 C113 1.369 . S
C112 C114 1.419 . S
C112 H116 0.930 . S
C113 C112 1.369 . S
C113 C122 1.429 . S
C114 C112 1.419 . S
C114 C115 1.363 . S
C114 H117 0.929 . S
C115 C114 1.363 . S
C115 C121 1.428 . S
H116 C112 0.930 . S
H117 C114 0.929 . S
S118 N119 1.613 . S
S118 N120 1.610 . S
N119 S118 1.613 . S
N119 C122 1.350 . S
N120 S118 1.610 . S
N120 C121 1.351 . S
C121 C115 1.428 . S
C121 N120 1.351 . S
C121 C122 1.434 . S
C122 C113 1.429 . S
C122 N119 1.350 . S
C122 C121 1.434 . S
C123 C124 1.369 . S
C123 C125 1.419 . S
C123 H127 0.930 . S
C124 C123 1.369 . S
C124 C133 1.429 1_554 S
C125 C123 1.419 . S
C125 C126 1.363 . S
C125 H128 0.929 . S
C126 C125 1.363 . S
C126 C132 1.428 1_554 S
H127 C123 0.930 . S
H128 C125 0.929 . S
S129 N130 1.613 . S
S129 N131 1.610 . S
N130 S129 1.613 . S
N130 C133 1.350 . S
N131 S129 1.610 . S
N131 C132 1.351 . S
C132 C126 1.428 1_556 S
C132 N131 1.351 . S
C132 C133 1.434 . S
C133 C124 1.429 1_556 S
C133 N130 1.350 . S
C133 C132 1.434 . S
C134 C135 1.369 . S
C134 C136 1.419 . S
C134 H138 0.930 . S
C135 C134 1.369 . S
C135 C144 1.429 . S
C136 C134 1.419 . S
C136 C137 1.363 . S
C136 H139 0.929 . S
C137 C136 1.363 . S
C137 C143 1.428 . S
H138 C134 0.930 . S
H139 C136 0.929 . S
S140 N141 1.613 1_655 S
S140 N142 1.610 1_655 S
N141 S140 1.613 1_455 S
N141 C144 1.350 . S
N142 S140 1.610 1_455 S
N142 C143 1.351 . S
C143 C137 1.428 . S
C143 N142 1.351 . S
C143 C144 1.434 . S
C144 C135 1.429 . S
C144 N141 1.350 . S
C144 C143 1.434 . S
C145 C146 1.369 . S
C145 C147 1.419 . S
C145 H149 0.930 . S
C146 C145 1.369 . S
C146 C155 1.429 . S
C147 C145 1.419 . S
C147 C148 1.363 . S
C147 H150 0.929 . S
C148 C147 1.363 . S
C148 C154 1.428 . S
H149 C145 0.930 . S
H150 C147 0.929 . S
S151 N152 1.613 . S
S151 N153 1.610 . S
N152 S151 1.613 . S
N152 C155 1.350 . S
N153 S151 1.610 . S
N153 C154 1.351 . S
C154 C148 1.428 . S
C154 N153 1.351 . S
C154 C155 1.434 . S
C155 C146 1.429 . S
C155 N152 1.350 . S
C155 C154 1.434 . S
C156 C157 1.369 . S
C156 C158 1.419 . S
C156 H160 0.930 . S
C157 C156 1.369 . S
C157 C166 1.429 . S
C158 C156 1.419 . S
C158 C159 1.363 . S
C158 H161 0.929 . S
C159 C158 1.363 . S
C159 C165 1.428 . S
H160 C156 0.930 . S
H161 C158 0.929 . S
S162 N163 1.613 . S
S162 N164 1.610 . S
N163 S162 1.613 . S
N163 C166 1.350 . S
N164 S162 1.610 . S
N164 C165 1.351 . S
C165 C159 1.428 . S
C165 N164 1.351 . S
C165 C166 1.434 . S
C166 C157 1.429 . S
C166 N163 1.350 . S
C166 C165 1.434 . S
C167 C168 1.369 . S
C167 C169 1.419 . S
C167 H171 0.930 . S
C168 C167 1.369 . S
C168 C177 1.429 . S
C169 C167 1.419 . S
C169 C170 1.363 . S
C169 H172 0.929 . S
C170 C169 1.363 . S
C170 C176 1.428 . S
H171 C167 0.930 . S
H172 C169 0.929 . S
S173 N174 1.613 . S
S173 N175 1.610 . S
N174 S173 1.613 . S
N174 C177 1.350 . S
N175 S173 1.610 . S
N175 C176 1.351 . S
C176 C170 1.428 . S
C176 N175 1.351 . S
C176 C177 1.434 . S
C177 C168 1.429 . S
C177 N174 1.350 . S
C177 C176 1.434 . S
C178 C179 1.369 . S
C178 C180 1.419 . S
C178 H182 0.930 . S
C179 C178 1.369 . S
C179 C188 1.429 . S
C180 C178 1.419 . S
C180 C181 1.363 . S
C180 H183 0.929 . S
C181 C180 1.363 . S
C181 C187 1.428 . S
H182 C178 0.930 . S
H183 C180 0.929 . S
S184 N185 1.613 . S
S184 N186 1.610 . S
N185 S184 1.613 . S
N185 C188 1.350 . S
N186 S184 1.610 . S
N186 C187 1.351 . S
C187 C181 1.428 . S
C187 N186 1.351 . S
C187 C188 1.434 . S
C188 C179 1.429 . S
C188 N185 1.350 . S
C188 C187 1.434 . S
C189 C190 1.369 . S
C189 C191 1.419 . S
C189 H193 0.930 . S
C190 C189 1.369 . S
C190 C199 1.429 . S
C191 C189 1.419 . S
C191 C192 1.363 . S
C191 H194 0.929 1_655 S
C192 C191 1.363 . S
C192 C198 1.428 . S
H193 C189 0.930 . S
H194 C191 0.929 1_455 S
S195 N196 1.613 . S
S195 N197 1.610 . S
N196 S195 1.613 . S
N196 C199 1.350 . S
N197 S195 1.610 . S
N197 C198 1.351 . S
C198 C192 1.428 . S
C198 N197 1.351 . S
C198 C199 1.434 . S
C199 C190 1.429 . S
C199 N196 1.350 . S
C199 C198 1.434 . S
C200 C201 1.369 . S
C200 C202 1.419 . S
C200 H204 0.930 . S
C201 C200 1.369 . S
C201 C210 1.429 . S
C202 C200 1.419 . S
C202 C203 1.363 . S
C202 H205 0.929 . S
C203 C202 1.363 . S
C203 C209 1.428 . S
H204 C200 0.930 . S
H205 C202 0.929 . S
S206 N207 1.613 . S
S206 N208 1.610 . S
N207 S206 1.613 . S
N207 C210 1.350 . S
N208 S206 1.610 . S
N208 C209 1.351 . S
C209 C203 1.428 . S
C209 N208 1.351 . S
C209 C210 1.434 . S
C210 C201 1.429 . S
C210 N207 1.350 . S
C210 C209 1.434 . S
C211 C212 1.369 . S
C211 C213 1.419 . S
C211 H215 0.930 . S
C212 C211 1.369 . S
C212 C221 1.429 . S
C213 C211 1.419 . S
C213 C214 1.363 . S
C213 H216 0.929 . S
C214 C213 1.363 . S
C214 C220 1.428 . S
H215 C211 0.930 . S
H216 C213 0.929 . S
S217 N218 1.613 1_655 S
S217 N219 1.610 . S
N218 S217 1.613 1_455 S
N218 C221 1.350 . S
N219 S217 1.610 . S
N219 C220 1.351 1_655 S
C220 C214 1.428 . S
C220 N219 1.351 1_455 S
C220 C221 1.434 . S
C221 C212 1.429 . S
C221 N218 1.350 . S
C221 C220 1.434 . S
C93 C61 1.535 . S
C91 C41 1.501 . S
C102 C8 1.492 . S
C104 C84 1.519 . S
C113 C19 1.515 . S
C115 C60 1.549 . S
C124 C30 1.569 . S
C126 C83 1.568 . S
C137 C64 1.524 . S
C135 C5 1.260 . S
C148 C86 1.612 . S
C146 C18 1.658 . S
C157 C29 1.631 . S
C159 C65 1.552 . S
C168 C40 1.616 . S
C170 C85 1.583 . S
C181 C88 1.386 . S
C179 C16 1.158 . S
C192 C63 1.417 . S
C190 C27 1.309 . S
C203 C87 1.357 . S
C201 C38 1.119 . S
C212 C7 1.442 . S
C214 C62 1.405 . S
