# Generated by pormake.
# Topology bcu-b, (8,8)-cn, num edge types: 1
# Building blocks:
#     Node 0, Type 0, BuildingBlock: TAGTUT_clean_sbu_1, # of connection points: 8
#     Node 1, Type 1, BuildingBlock: VETTIZ_charged_sbu_0, # of connection points: 8
#     Edge 2, Type (0, 1), BuildingBlock: OJICUG_clean_linker_0, # of connection points: 2
#     Edge 3, Type (0, 1), BuildingBlock: OJICUG_clean_linker_0, # of connection points: 2
#     Edge 4, Type (0, 1), BuildingBlock: OJICUG_clean_linker_0, # of connection points: 2
#     Edge 5, Type (0, 1), BuildingBlock: OJICUG_clean_linker_0, # of connection points: 2
#     Edge 6, Type (0, 1), BuildingBlock: OJICUG_clean_linker_0, # of connection points: 2
#     Edge 7, Type (0, 1), BuildingBlock: OJICUG_clean_linker_0, # of connection points: 2
#     Edge 8, Type (0, 1), BuildingBlock: OJICUG_clean_linker_0, # of connection points: 2
#     Edge 9, Type (0, 1), BuildingBlock: OJICUG_clean_linker_0, # of connection points: 2
# Relax obj value: 0.026
# Max RMSD: 0.115
# Mean RMSD: 0.087
data_MOF--net-bcu-b--node1-TAGTUT_clean_sbu_1--node2-VETTIZ_charged_sbu_0--edge1-OJICUG_clean_linker_0
_symmetry_space_group_name_H-M    P1
_symmetry_Int_Tables_number       1
_symmetry_cell_setting            triclinic
loop_
_symmetry_equiv_pos_as_xyz
'x, y, z'
_cell_length_a     14.044004
_cell_length_b     15.405109
_cell_length_c     15.730865
_cell_angle_alpha  91.82726
_cell_angle_beta   91.078229
_cell_angle_gamma 100.47876
loop_
_atom_site_label
_atom_site_type_symbol
_atom_site_fract_x
_atom_site_fract_y
_atom_site_fract_z
_atom_type_partial_charge
C0 C 0.76601 0.1532 0.05006 0.0
C1 C 0.88503 0.13847 0.80743 0.0
C2 C 0.92501 0.80154 0.8968 0.0
Mg3 Mg 0.97695 0.17219 0.98451 0.0
O4 O 0.94795 0.05352 0.00943 0.0
Mg5 Mg 0.83153 0.97773 0.95336 0.0
Mg6 Mg 0.04798 -0.01992 -0.00592 0.0
O7 O 0.14788 0.90655 0.97868 0.0
Mg8 Mg 0.11879 0.78778 0.00343 0.0
Mg9 Mg 0.26431 -0.01778 0.03473 0.0
C10 C 0.1708 0.15857 0.09124 0.0
C11 C 0.20904 0.07467 0.86249 0.0
O12 O 0.7436 0.07333 0.02001 0.0
O13 O 0.85006 0.20105 0.04301 0.0
O14 O 0.83807 0.0656 0.83434 0.0
O15 O 0.95453 0.18522 0.85108 0.0
O16 O 0.11527 0.20525 0.05541 0.0
O17 O 0.15561 0.07349 0.08355 0.0
C18 C 0.88689 0.88545 0.12566 0.0
O19 O 0.9775 0.90471 0.10969 0.0
O20 O 0.82248 0.90237 0.07374 0.0
O21 O 0.35215 0.88662 0.96801 0.0
O22 O 0.24567 0.75894 0.94489 0.0
O23 O 0.25772 0.89426 0.15367 0.0
C24 C 0.32973 0.80679 0.9379 0.0
O25 O 0.14129 0.77462 0.13684 0.0
O26 O 0.98045 0.75467 0.93249 0.0
C27 C 0.21078 0.82136 0.18052 0.0
O28 O 0.94046 0.8866 0.90477 0.0
O29 O 0.11843 0.05544 0.87847 0.0
O30 O 0.27342 0.05769 0.9144 0.0
Fe31 Fe 0.56579 0.58223 0.50866 0.0
O32 O 0.47355 0.47612 0.54568 0.0
Fe33 Fe 0.76265 0.49178 0.44143 0.0
Fe34 Fe 0.33323 0.46826 0.54666 0.0
O35 O 0.62168 0.4936 0.43962 0.0
O36 O 0.62233 0.4839 0.44238 0.0
O37 O 0.4742 0.46641 0.54845 0.0
Fe38 Fe 0.53008 0.37778 0.47939 0.0
C39 C 0.43592 0.63202 0.65044 0.0
O40 O 0.4752 0.6047 0.40923 0.0
O41 O 0.33279 0.57461 0.47217 0.0
O42 O 0.59745 0.30049 0.39556 0.0
O43 O 0.72322 0.40114 0.34237 0.0
O44 O 0.764 0.60246 0.37499 0.0
O45 O 0.67243 0.68204 0.45678 0.0
O46 O 0.30063 0.382 0.44062 0.0
O47 O 0.44241 0.39403 0.37822 0.0
C48 C 0.7362 0.67486 0.39836 0.0
O49 O 0.62066 0.35526 0.57881 0.0
O50 O 0.76311 0.38544 0.51593 0.0
O51 O 0.49841 0.65952 0.59248 0.0
O52 O 0.37269 0.55887 0.64572 0.0
C53 C 0.38657 0.6124 0.41532 0.0
C54 C 0.35151 0.3698 0.3765 0.0
C55 C 0.35966 0.28516 0.5897 0.0
O56 O 0.33187 0.35756 0.61307 0.0
O57 O 0.42342 0.27797 0.53126 0.0
C58 C 0.65998 0.32799 0.33762 0.0
O59 O 0.79524 0.57809 0.54746 0.0
O60 O 0.65345 0.56601 0.60983 0.0
C61 C 0.70929 0.34758 0.57273 0.0
C62 C 0.74433 0.59035 0.61155 0.0
C63 C 0.21318 0.17649 0.24512 0.0
C64 C 0.23257 0.20378 0.16183 0.0
H65 H 0.23231 0.21012 0.37865 0.0
C66 C 0.29252 0.28568 0.14966 0.0
H67 H 0.16498 0.1147 0.25611 0.0
C68 C 0.33176 0.33967 0.21965 0.0
C69 C 0.30794 0.31441 0.30273 0.0
H70 H 0.30646 0.30898 0.08603 0.0
H71 H 0.37822 0.40243 0.2089 0.0
C72 C 0.24951 0.23189 0.315 0.0
C73 C 0.67009 0.13958 0.18114 0.0
C74 C 0.70155 0.18772 0.10916 0.0
H75 H 0.63245 0.14738 0.31274 0.0
C76 C 0.69826 0.27792 0.1083 0.0
H77 H 0.6732 0.06991 0.18327 0.0
C78 C 0.67652 0.32181 0.18185 0.0
C79 C 0.65779 0.27616 0.25738 0.0
H80 H 0.72212 0.3161 0.05342 0.0
H81 H 0.68141 0.39283 0.18129 0.0
C82 C 0.64809 0.18388 0.25538 0.0
C83 C 0.75656 0.84271 0.23114 0.0
C84 C 0.85336 0.84548 0.20681 0.0
H85 H 0.64384 0.78886 0.31484 0.0
C86 C 0.91525 0.80792 0.25948 0.0
H87 H 0.70733 0.87316 0.19325 0.0
C88 C 0.87853 0.76083 0.32982 0.0
C89 C 0.77961 0.7511 0.34919 0.0
H90 H 0.99038 0.81038 0.24371 0.0
H91 H 0.92585 0.72607 0.36534 0.0
C92 C 0.72015 0.79614 0.30192 0.0
C93 C 0.1972 0.70707 0.29138 0.0
C94 C 0.25328 0.77836 0.25138 0.0
H95 H 0.19544 0.59863 0.37311 0.0
C96 C 0.35419 0.79637 0.26758 0.0
H97 H 0.11962 0.69076 0.27964 0.0
C98 C 0.39824 0.74192 0.31956 0.0
C99 C 0.34231 0.66921 0.35751 0.0
H100 H 0.39995 0.84986 0.23666 0.0
H101 H 0.47585 0.75671 0.33013 0.0
C102 C 0.24102 0.65368 0.34421 0.0
C103 C 0.4257 0.82043 0.80686 0.0
C104 C 0.39424 0.77229 0.87883 0.0
H105 H 0.46338 0.81263 0.67527 0.0
C106 C 0.39761 0.68211 0.87974 0.0
H107 H 0.42253 0.89009 0.80471 0.0
C108 C 0.41941 0.63823 0.8062 0.0
C109 C 0.43812 0.68386 0.73067 0.0
H110 H 0.37375 0.64393 0.93462 0.0
H111 H 0.41458 0.56722 0.80679 0.0
C112 C 0.44776 0.77614 0.73264 0.0
C113 C 0.18065 0.1521 0.72862 0.0
C114 C 0.24257 0.11463 0.78134 0.0
H115 H 0.17 0.23385 0.62269 0.0
C116 C 0.33939 0.11745 0.75703 0.0
H117 H 0.10551 0.14959 0.74437 0.0
C118 C 0.37577 0.16399 0.68622 0.0
C119 C 0.31627 0.20893 0.6389 0.0
H120 H 0.38864 0.08707 0.79496 0.0
H121 H 0.45209 0.17131 0.67331 0.0
C122 C 0.21735 0.19915 0.65824 0.0
C123 C 0.74162 0.16353 0.72041 0.0
C124 C 0.84254 0.18146 0.73656 0.0
H125 H 0.61997 0.20327 0.65793 0.0
C126 C 0.89864 0.25272 0.69652 0.0
H127 H 0.69584 0.11006 0.75136 0.0
C128 C 0.85483 0.30616 0.64374 0.0
C129 C 0.75354 0.29071 0.6305 0.0
H130 H 0.97623 0.26898 0.70822 0.0
H131 H 0.90044 0.36118 0.61482 0.0
C132 C 0.69758 0.21802 0.66846 0.0
C133 C 0.80276 0.67493 0.83835 0.0
C134 C 0.86316 0.75658 0.82615 0.0
H135 H 0.71676 0.5583 0.77916 0.0
C136 C 0.88301 0.78361 0.74286 0.0
H137 H 0.78847 0.6518 0.902 0.0
C138 C 0.84669 0.72815 0.673 0.0
C139 C 0.78784 0.64583 0.6853 0.0
H140 H 0.93157 0.84519 0.73186 0.0
H141 H 0.86426 0.7497 0.60935 0.0
C142 C 0.76355 0.62088 0.76838 0.0
loop_
_geom_bond_atom_site_label_1
_geom_bond_atom_site_label_2
_geom_bond_distance
_geom_bond_site_symmetry_2
_ccdc_geom_bond_type
C0 O12 1.241 . S
C0 O13 1.280 . S
C1 O14 1.277 . S
C1 O15 1.245 . S
C2 O26 1.247 . S
C2 O28 1.289 . S
Mg3 O4 1.926 . S
Mg3 O13 1.984 . S
Mg3 O15 1.988 1_554 S
Mg3 O16 2.061 1_655 S
O4 Mg3 1.926 . S
O4 Mg5 1.985 1_554 S
O4 Mg6 1.917 1_655 S
Mg5 O4 1.985 1_556 S
Mg5 O12 2.037 1_556 S
Mg5 O14 2.048 . S
Mg5 O20 2.032 1_546 S
Mg5 O28 2.242 1_545 S
Mg6 O4 1.917 1_455 S
Mg6 O7 1.917 1_544 S
Mg6 O17 2.106 . S
Mg6 O19 2.079 1_445 S
Mg6 O28 2.106 1_444 S
Mg6 O29 2.079 1_554 S
O7 Mg6 1.917 1_566 S
O7 Mg8 1.926 . S
O7 Mg9 1.984 1_556 S
Mg8 O7 1.926 . S
Mg8 O22 1.984 . S
Mg8 O25 1.988 1_556 S
Mg8 O26 2.061 1_455 S
Mg9 O7 1.984 1_554 S
Mg9 O17 2.244 1_565 S
Mg9 O21 2.035 1_554 S
Mg9 O23 2.050 . S
Mg9 O30 2.030 1_564 S
C10 O16 1.247 . S
C10 O17 1.289 . S
C11 O29 1.245 . S
C11 O30 1.274 . S
O12 C0 1.241 . S
O12 Mg5 2.037 1_554 S
O13 C0 1.280 . S
O13 Mg3 1.984 . S
O14 C1 1.277 . S
O14 Mg5 2.048 . S
O15 C1 1.245 . S
O15 Mg3 1.988 1_556 S
O16 Mg3 2.061 1_455 S
O16 C10 1.247 . S
O17 Mg6 2.106 . S
O17 Mg9 2.244 1_545 S
O17 C10 1.289 . S
C18 O19 1.245 . S
C18 O20 1.274 . S
O19 Mg6 2.079 1_665 S
O19 C18 1.245 . S
O20 Mg5 2.032 1_564 S
O20 C18 1.274 . S
O21 Mg9 2.035 1_556 S
O21 C24 1.241 . S
O22 Mg8 1.984 . S
O22 C24 1.280 . S
O23 Mg9 2.050 . S
O23 C27 1.277 . S
C24 O21 1.241 . S
C24 O22 1.280 . S
O25 Mg8 1.988 1_554 S
O25 C27 1.245 . S
O26 C2 1.247 . S
O26 Mg8 2.061 1_655 S
C27 O23 1.277 . S
C27 O25 1.245 . S
O28 C2 1.289 . S
O28 Mg5 2.242 1_565 S
O28 Mg6 2.106 1_666 S
O29 Mg6 2.079 1_556 S
O29 C11 1.245 . S
O30 Mg9 2.030 1_546 S
O30 C11 1.274 . S
Fe31 O32 1.886 . S
Fe31 O35 1.715 . S
Fe31 O40 2.077 . S
Fe31 O45 1.935 . S
Fe31 O51 2.077 . S
Fe31 O60 1.935 . S
O32 Fe31 1.886 . S
O32 Fe34 1.715 . S
Fe33 O35 1.886 . S
Fe33 O36 1.715 . S
Fe33 O43 1.935 . S
Fe33 O44 2.077 . S
Fe33 O50 1.935 . S
Fe33 O59 2.077 . S
Fe34 O32 1.715 . S
Fe34 O37 1.886 . S
Fe34 O41 1.935 . S
Fe34 O46 2.077 . S
Fe34 O52 1.935 . S
Fe34 O56 2.077 . S
O35 Fe31 1.715 . S
O35 Fe33 1.886 . S
O36 Fe33 1.715 . S
O36 Fe38 1.886 . S
O37 Fe34 1.886 . S
O37 Fe38 1.715 . S
Fe38 O36 1.886 . S
Fe38 O37 1.715 . S
Fe38 O42 2.077 . S
Fe38 O47 1.935 . S
Fe38 O49 2.077 . S
Fe38 O57 1.935 . S
C39 O51 1.381 . S
C39 O52 1.421 . S
O40 Fe31 2.077 . S
O40 C53 1.381 . S
O41 Fe34 1.935 . S
O41 C53 1.421 . S
O42 Fe38 2.077 . S
O42 C58 1.381 . S
O43 Fe33 1.935 . S
O43 C58 1.421 . S
O44 Fe33 2.077 . S
O44 C48 1.381 . S
O45 Fe31 1.935 . S
O45 C48 1.421 . S
O46 Fe34 2.077 . S
O46 C54 1.381 . S
O47 Fe38 1.935 . S
O47 C54 1.421 . S
C48 O44 1.381 . S
C48 O45 1.421 . S
O49 Fe38 2.077 . S
O49 C61 1.381 . S
O50 Fe33 1.935 . S
O50 C61 1.421 . S
O51 Fe31 2.077 . S
O51 C39 1.381 . S
O52 Fe34 1.935 . S
O52 C39 1.421 . S
C53 O40 1.381 . S
C53 O41 1.421 . S
C54 O46 1.381 . S
C54 O47 1.421 . S
C55 O56 1.381 . S
C55 O57 1.421 . S
O56 Fe34 2.077 . S
O56 C55 1.381 . S
O57 Fe38 1.935 . S
O57 C55 1.421 . S
C58 O42 1.381 . S
C58 O43 1.421 . S
O59 Fe33 2.077 . S
O59 C62 1.381 . S
O60 Fe31 1.935 . S
O60 C62 1.421 . S
C61 O49 1.381 . S
C61 O50 1.421 . S
C62 O59 1.381 . S
C62 O60 1.421 . S
C63 C64 1.387 . S
C63 H67 0.950 . S
C63 C72 1.390 . S
C64 C63 1.387 . S
C64 C66 1.387 . S
H65 C72 0.950 . S
C66 C64 1.387 . S
C66 C68 1.390 . S
C66 H70 0.950 . S
H67 C63 0.950 . S
C68 C66 1.390 . S
C68 C69 1.387 . S
C68 H71 0.950 . S
C69 C68 1.387 . S
C69 C72 1.387 . S
H70 C66 0.950 . S
H71 C68 0.950 . S
C72 C63 1.390 . S
C72 H65 0.950 . S
C72 C69 1.387 . S
C73 C74 1.387 . S
C73 H77 0.950 . S
C73 C82 1.390 . S
C74 C73 1.387 . S
C74 C76 1.387 . S
H75 C82 0.950 . S
C76 C74 1.387 . S
C76 C78 1.390 . S
C76 H80 0.950 . S
H77 C73 0.950 . S
C78 C76 1.390 . S
C78 C79 1.387 . S
C78 H81 0.950 . S
C79 C78 1.387 . S
C79 C82 1.387 . S
H80 C76 0.950 . S
H81 C78 0.950 . S
C82 C73 1.390 . S
C82 H75 0.950 . S
C82 C79 1.387 . S
C83 C84 1.387 . S
C83 H87 0.950 . S
C83 C92 1.390 . S
C84 C83 1.387 . S
C84 C86 1.387 . S
H85 C92 0.950 . S
C86 C84 1.387 . S
C86 C88 1.390 . S
C86 H90 0.950 . S
H87 C83 0.950 . S
C88 C86 1.390 . S
C88 C89 1.387 . S
C88 H91 0.950 . S
C89 C88 1.387 . S
C89 C92 1.387 . S
H90 C86 0.950 . S
H91 C88 0.950 . S
C92 C83 1.390 . S
C92 H85 0.950 . S
C92 C89 1.387 . S
C93 C94 1.387 . S
C93 H97 0.950 . S
C93 C102 1.390 . S
C94 C93 1.387 . S
C94 C96 1.387 . S
H95 C102 0.950 . S
C96 C94 1.387 . S
C96 C98 1.390 . S
C96 H100 0.950 . S
H97 C93 0.950 . S
C98 C96 1.390 . S
C98 C99 1.387 . S
C98 H101 0.950 . S
C99 C98 1.387 . S
C99 C102 1.387 . S
H100 C96 0.950 . S
H101 C98 0.950 . S
C102 C93 1.390 . S
C102 H95 0.950 . S
C102 C99 1.387 . S
C103 C104 1.387 . S
C103 H107 0.950 . S
C103 C112 1.390 . S
C104 C103 1.387 . S
C104 C106 1.387 . S
H105 C112 0.950 . S
C106 C104 1.387 . S
C106 C108 1.390 . S
C106 H110 0.950 . S
H107 C103 0.950 . S
C108 C106 1.390 . S
C108 C109 1.387 . S
C108 H111 0.950 . S
C109 C108 1.387 . S
C109 C112 1.387 . S
H110 C106 0.950 . S
H111 C108 0.950 . S
C112 C103 1.390 . S
C112 H105 0.950 . S
C112 C109 1.387 . S
C113 C114 1.387 . S
C113 H117 0.950 . S
C113 C122 1.390 . S
C114 C113 1.387 . S
C114 C116 1.387 . S
H115 C122 0.950 . S
C116 C114 1.387 . S
C116 C118 1.390 . S
C116 H120 0.950 . S
H117 C113 0.950 . S
C118 C116 1.390 . S
C118 C119 1.387 . S
C118 H121 0.950 . S
C119 C118 1.387 . S
C119 C122 1.387 . S
H120 C116 0.950 . S
H121 C118 0.950 . S
C122 C113 1.390 . S
C122 H115 0.950 . S
C122 C119 1.387 . S
C123 C124 1.387 . S
C123 H127 0.950 . S
C123 C132 1.390 . S
C124 C123 1.387 . S
C124 C126 1.387 . S
H125 C132 0.950 . S
C126 C124 1.387 . S
C126 C128 1.390 . S
C126 H130 0.950 . S
H127 C123 0.950 . S
C128 C126 1.390 . S
C128 C129 1.387 . S
C128 H131 0.950 . S
C129 C128 1.387 . S
C129 C132 1.387 . S
H130 C126 0.950 . S
H131 C128 0.950 . S
C132 C123 1.390 . S
C132 H125 0.950 . S
C132 C129 1.387 . S
C133 C134 1.387 . S
C133 H137 0.950 . S
C133 C142 1.390 . S
C134 C133 1.387 . S
C134 C136 1.387 . S
H135 C142 0.950 . S
C136 C134 1.387 . S
C136 C138 1.390 . S
C136 H140 0.950 . S
H137 C133 0.950 . S
C138 C136 1.390 . S
C138 C139 1.387 . S
C138 H141 0.950 . S
C139 C138 1.387 . S
C139 C142 1.387 . S
H140 C136 0.950 . S
H141 C138 0.950 . S
C142 C133 1.390 . S
C142 H135 0.950 . S
C142 C139 1.387 . S
C64 C10 1.269 . S
C69 C54 1.285 . S
C74 C0 1.481 . S
C79 C58 1.489 . S
C84 C18 1.508 . S
C89 C48 1.539 . S
C94 C27 1.553 . S
C99 C53 1.540 . S
C104 C24 1.481 . S
C109 C39 1.494 . S
C119 C55 1.539 . S
C114 C11 1.508 . S
C124 C1 1.553 . S
C129 C61 1.543 . S
C139 C62 1.287 . S
C134 C2 1.270 . S
