# Generated by pormake.
# Topology rtl, (3,6)-cn, num edge types: 1
# Building blocks:
#     Node 0, Type 0, BuildingBlock: WUSLED_clean_sbu_0, # of connection points: 3
#     Node 1, Type 0, BuildingBlock: WUSLED_clean_sbu_0, # of connection points: 3
#     Node 2, Type 0, BuildingBlock: WUSLED_clean_sbu_0, # of connection points: 3
#     Node 3, Type 0, BuildingBlock: WUSLED_clean_sbu_0, # of connection points: 3
#     Node 4, Type 1, BuildingBlock: LEVNOQ01_clean_sbu_1, # of connection points: 6
#     Node 5, Type 1, BuildingBlock: LEVNOQ01_clean_sbu_1, # of connection points: 6
#     Edge 6, Type (0, 1), None
#     Edge 7, Type (0, 1), None
#     Edge 8, Type (0, 1), None
#     Edge 9, Type (0, 1), None
#     Edge 10, Type (0, 1), None
#     Edge 11, Type (0, 1), None
#     Edge 12, Type (0, 1), None
#     Edge 13, Type (0, 1), None
#     Edge 14, Type (0, 1), None
#     Edge 15, Type (0, 1), None
#     Edge 16, Type (0, 1), None
#     Edge 17, Type (0, 1), None
# Relax obj value: 0.024
# Max RMSD: 0.058
# Mean RMSD: 0.042
data_MOF--net-rtl--node1-WUSLED_clean_sbu_0--node2-LEVNOQ01_clean_sbu_1--edge1-none
_symmetry_space_group_name_H-M    P1
_symmetry_Int_Tables_number       1
_symmetry_cell_setting            triclinic
loop_
_symmetry_equiv_pos_as_xyz
'x, y, z'
_cell_length_a     24.451696
_cell_length_b     25.073003
_cell_length_c     17.742205
_cell_angle_alpha  90.294965
_cell_angle_beta   99.358364
_cell_angle_gamma 90.036655
loop_
_atom_site_label
_atom_site_type_symbol
_atom_site_fract_x
_atom_site_fract_y
_atom_site_fract_z
_atom_type_partial_charge
C0 C 0.14008 0.97011 0.25994 0.0
C1 C 0.12202 1.02047 0.28017 0.0
C2 C 0.09781 0.98385 0.39707 0.0
C3 C 0.10135 0.02747 0.3486 0.0
C4 C 0.12093 0.93474 0.37996 0.0
C5 C 0.14205 0.92794 0.31196 0.0
U6 U 0.19999 0.89095 0.10611 0.0
O7 O 0.20792 0.81085 0.1571 0.0
O8 O 0.28031 0.86355 0.16778 0.0
C9 C 0.26212 0.8148 0.17506 0.0
C10 C 0.14883 0.96045 0.18098 0.0
C11 C 0.29329 0.77366 0.14097 0.0
C12 C 0.36218 0.70289 0.1513 0.0
C13 C 0.32939 0.73853 0.18598 0.0
C14 C 0.32177 0.73695 0.02703 0.0
C15 C 0.35946 0.70275 0.07145 0.0
C16 C 0.2891 0.7719 0.06138 0.0
C17 C 0.15458 0.92924 0.89797 0.0
C18 C 0.11335 0.94387 0.76554 0.0
C19 C 0.09821 1.00764 0.86319 0.0
C20 C 0.13043 0.97664 0.91869 0.0
C21 C 0.08921 0.99162 0.78594 0.0
C22 C 0.14583 0.91297 0.82122 0.0
C23 C 0.18693 0.89552 0.95637 0.0
O24 O 0.12526 0.91698 0.14897 0.0
O25 O 0.19916 0.96829 0.16615 0.0
O26 O 0.15714 0.86463 0.99345 0.0
O27 O 0.22788 0.91931 1.00139 0.0
H28 H 0.12042 0.05351 0.24074 0.0
H29 H 0.08385 0.06577 0.36009 0.0
H30 H 0.11914 0.90051 0.41651 0.0
H31 H 0.15633 0.88885 0.29762 0.0
H32 H 0.3908 0.67692 0.18687 0.0
H33 H 0.3331 0.7395 0.24764 0.0
H34 H 0.31807 0.7375 0.96535 0.0
H35 H 0.26142 0.79867 0.02572 0.0
H36 H 0.10727 0.93042 0.70665 0.0
H37 H 0.08012 0.04408 0.88102 0.0
H38 H 0.13629 0.9895 0.97787 0.0
H39 H 0.16388 0.87619 0.80443 0.0
C40 C 0.64043 0.63086 0.76082 0.0
C41 C 0.6223 0.58042 0.7801 0.0
C42 C 0.59831 0.61671 0.89781 0.0
C43 C 0.60171 0.57322 0.84845 0.0
C44 C 0.62154 0.66589 0.88165 0.0
C45 C 0.64258 0.67289 0.8137 0.0
U46 U 0.70011 0.71013 0.60764 0.0
O47 O 0.78087 0.73725 0.6689 0.0
O48 O 0.7089 0.79022 0.65983 0.0
C49 C 0.76311 0.78609 0.67701 0.0
C50 C 0.64894 0.64074 0.68193 0.0
C51 C 0.79424 0.82702 0.64283 0.0
C52 C 0.86326 0.89782 0.65279 0.0
C53 C 0.83064 0.86235 0.68769 0.0
C54 C 0.82212 0.86317 0.52863 0.0
C55 C 0.86007 0.8976 0.57286 0.0
C56 C 0.78961 0.8284 0.56319 0.0
C57 C 0.65342 0.67209 0.39899 0.0
C58 C 0.6126 0.6572 0.26624 0.0
C59 C 0.59594 0.59421 0.36323 0.0
C60 C 0.62839 0.62514 0.41917 0.0
C61 C 0.58763 0.60986 0.28607 0.0
C62 C 0.64529 0.68803 0.32235 0.0
C63 C 0.68622 0.70564 0.45777 0.0
O64 O 0.69909 0.63277 0.66648 0.0
O65 O 0.62555 0.68435 0.65097 0.0
O66 O 0.72717 0.68167 0.50203 0.0
O67 O 0.65684 0.73657 0.49573 0.0
H68 H 0.62056 0.54748 0.73999 0.0
H69 H 0.58411 0.53487 0.85918 0.0
H70 H 0.61986 0.70003 0.91888 0.0
H71 H 0.6569 0.71205 0.8001 0.0
H72 H 0.89208 0.92398 0.68823 0.0
H73 H 0.83469 0.86168 0.74939 0.0
H74 H 0.81804 0.86233 0.46691 0.0
H75 H 0.7617 0.80147 0.52764 0.0
H76 H 0.60707 0.67034 0.20743 0.0
H77 H 0.57721 0.5581 0.38062 0.0
H78 H 0.63379 0.61255 0.47826 0.0
H79 H 0.66403 0.72445 0.30597 0.0
C80 C 0.80623 0.17151 0.23053 0.0
C81 C 0.83068 0.12429 0.20974 0.0
C82 C 0.87169 0.10918 0.34253 0.0
C83 C 0.86295 0.09331 0.26523 0.0
C84 C 0.84726 0.15675 0.36301 0.0
C85 C 0.81474 0.18764 0.30734 0.0
U86 U 0.76078 0.20959 0.02238 0.0
O87 O 0.68043 0.23669 0.96049 0.0
O88 O 0.75264 0.28962 0.97117 0.0
C89 C 0.69847 0.28548 0.95303 0.0
C90 C 0.77379 0.20518 0.17214 0.0
C91 C 0.66705 0.3266 0.98675 0.0
C92 C 0.63789 0.36332 0.10021 0.0
C93 C 0.67078 0.32835 0.06627 0.0
C94 C 0.5982 0.39743 0.97568 0.0
C95 C 0.60046 0.39758 0.05545 0.0
C96 C 0.63121 0.36177 0.94141 0.0
C97 C 0.8209 0.1304 0.86883 0.0
C98 C 0.83976 0.16569 0.74861 0.0
C99 C 0.85965 0.07304 0.7802 0.0
C100 C 0.83908 0.08006 0.84869 0.0
C101 C 0.86298 0.11661 0.73156 0.0
C102 C 0.81873 0.1725 0.81668 0.0
C103 C 0.81216 0.14012 0.94778 0.0
O104 O 0.8035 0.23612 0.13502 0.0
O105 O 0.7329 0.18129 0.12714 0.0
O106 O 0.76186 0.13217 0.96264 0.0
O107 O 0.8356 0.18368 0.97965 0.0
H108 H 0.82501 0.11154 0.15051 0.0
H109 H 0.88125 0.05701 0.24734 0.0
H110 H 0.85314 0.17008 0.42195 0.0
H111 H 0.79646 0.22428 0.32419 0.0
H112 H 0.64124 0.36276 0.16185 0.0
H113 H 0.69826 0.30155 0.10218 0.0
H114 H 0.5698 0.42345 0.93985 0.0
H115 H 0.62786 0.36081 0.87978 0.0
H116 H 0.84139 0.19988 0.71195 0.0
H117 H 0.87725 0.03477 0.76877 0.0
H118 H 0.84083 0.04707 0.88822 0.0
H119 H 0.80436 0.21157 0.83095 0.0
C120 C 0.31935 0.46968 0.36518 0.0
C121 C 0.33741 0.52016 0.34594 0.0
C122 C 0.36147 0.48395 0.22821 0.0
C123 C 0.35801 0.52742 0.2776 0.0
C124 C 0.33827 0.43474 0.24433 0.0
C125 C 0.31725 0.42768 0.31227 0.0
U126 U 0.25979 0.39039 0.51852 0.0
O127 O 0.17899 0.36323 0.45743 0.0
O128 O 0.25097 0.31026 0.46647 0.0
C129 C 0.19675 0.31436 0.44946 0.0
C130 C 0.31087 0.45976 0.44407 0.0
C131 C 0.16571 0.27354 0.48399 0.0
C132 C 0.09689 0.20258 0.47473 0.0
C133 C 0.1294 0.23795 0.43947 0.0
C134 C 0.13797 0.23784 0.59855 0.0
C135 C 0.10011 0.20316 0.55466 0.0
C136 C 0.17037 0.27251 0.56364 0.0
C137 C 0.30659 0.42847 0.7272 0.0
C138 C 0.34745 0.4433 0.85995 0.0
C139 C 0.36396 0.5064 0.76302 0.0
C140 C 0.33153 0.47547 0.70705 0.0
C141 C 0.37234 0.49069 0.84015 0.0
C142 C 0.31478 0.41247 0.80381 0.0
C143 C 0.27379 0.39493 0.6684 0.0
O144 O 0.33428 0.41615 0.47501 0.0
O145 O 0.26073 0.46773 0.45959 0.0
O146 O 0.23282 0.41889 0.62417 0.0
O147 O 0.30316 0.36401 0.63041 0.0
H148 H 0.33912 0.55308 0.38607 0.0
H149 H 0.37557 0.56579 0.26689 0.0
H150 H 0.34 0.40062 0.20707 0.0
H151 H 0.30297 0.3885 0.32584 0.0
H152 H 0.06814 0.17622 0.43955 0.0
H153 H 0.12533 0.23835 0.37777 0.0
H154 H 0.14206 0.23896 0.66027 0.0
H155 H 0.19822 0.29962 0.59894 0.0
H156 H 0.35303 0.43011 0.91874 0.0
H157 H 0.38263 0.54256 0.74566 0.0
H158 H 0.32609 0.48811 0.64798 0.0
H159 H 0.2961 0.37601 0.82015 0.0
O160 O 0.92441 0.15649 0.65952 0.0
Mg161 Mg 0.00338 0.12386 0.65913 0.0
O162 O 0.91958 0.07011 0.65408 0.0
Mg163 Mg -0.01968 0.05028 0.56422 0.0
O164 O 0.03663 0.12913 0.56108 0.0
O165 O 0.05702 0.18425 0.66214 0.0
O166 O 0.04115 0.03041 0.47442 0.0
O167 O 0.91712 0.09095 0.47027 0.0
Mg168 Mg 0.95737 0.97692 0.46936 0.0
O169 O 0.92402 0.97137 0.56732 0.0
O170 O 0.03622 0.94402 0.46896 0.0
O171 O 0.92311 0.03092 0.38181 0.0
O172 O 0.90325 0.91689 0.46561 0.0
C173 C 0.0552 1.02507 0.72757 0.0
C174 C 0.90025 0.11436 0.67383 0.0
C175 C 0.06293 0.17058 0.59386 0.0
C176 C 0.06043 0.98613 0.45468 0.0
C177 C 0.90568 0.07572 0.4009 0.0
C178 C 0.89737 0.93027 0.534 0.0
O179 O 0.03798 0.06997 0.74661 0.0
O180 O 0.04351 1.00968 0.65828 0.0
O181 O 0.53584 0.53166 0.24558 0.0
Mg182 Mg 0.50205 0.4775 0.15702 0.0
O183 O 0.54277 0.59137 0.15787 0.0
Mg184 Mg 0.47999 0.55029 0.06314 0.0
O185 O 0.53663 0.47153 0.0601 0.0
O186 O 0.55584 0.41727 0.16146 0.0
O187 O 0.41721 0.50919 0.96837 0.0
O188 O 0.54134 0.56997 0.97407 0.0
Mg189 Mg 0.4577 0.62323 0.96904 0.0
O190 O 0.4235 0.62905 0.06628 0.0
O191 O 0.424 0.56894 0.88065 0.0
O192 O 0.53669 0.65635 0.9702 0.0
O193 O 0.40351 0.68314 0.96486 0.0
C194 C 0.39893 0.48644 0.17074 0.0
C195 C 0.55365 0.57636 0.22714 0.0
C196 C 0.56265 0.43041 0.09352 0.0
C197 C 0.40627 0.52421 0.8991 0.0
C198 C 0.56085 0.61429 0.95528 0.0
C199 C 0.39707 0.66998 0.03293 0.0
O200 O 0.423 0.44439 0.15562 0.0
O201 O 0.41857 0.53075 0.15218 0.0
loop_
_geom_bond_atom_site_label_1
_geom_bond_atom_site_label_2
_geom_bond_distance
_geom_bond_site_symmetry_2
_ccdc_geom_bond_type
C0 C1 1.259 1_565 S
C0 C5 1.479 . S
C0 C10 1.465 . S
C1 C0 1.259 1_545 S
C1 C3 1.340 . S
C1 H28 0.934 . S
C2 C3 1.395 1_565 S
C2 C4 1.320 . S
C3 C1 1.340 . S
C3 C2 1.395 1_545 S
C3 H29 0.929 . S
C4 C2 1.320 . S
C4 C5 1.405 . S
C4 H30 0.930 . S
C5 C0 1.479 . S
C5 C4 1.405 . S
C5 H31 0.931 . S
U6 O7 2.454 . S
U6 O8 2.458 . S
U6 C9 2.984 . S
U6 C10 2.847 . S
U6 C23 2.882 1_554 S
U6 O24 2.441 . S
U6 O25 2.420 . S
U6 O26 2.455 1_554 S
U6 O27 2.449 . S
O7 U6 2.454 . S
O7 C9 1.353 . S
O8 U6 2.458 . S
O8 C9 1.286 . S
C9 U6 2.984 . S
C9 O7 1.353 . S
C9 O8 1.286 . S
C9 C11 1.363 . S
C10 C0 1.465 . S
C10 U6 2.847 . S
C10 O24 1.249 . S
C10 O25 1.202 . S
C11 C9 1.363 . S
C11 C13 1.408 . S
C11 C16 1.342 . S
C12 C13 1.310 . S
C12 C15 1.461 . S
C12 H32 0.932 . S
C13 C11 1.408 . S
C13 C12 1.310 . S
C13 H33 0.930 . S
C14 C15 1.474 . S
C14 C16 1.285 . S
C14 H34 0.929 1_554 S
C15 C12 1.461 . S
C15 C14 1.474 . S
C16 C11 1.342 . S
C16 C14 1.285 . S
C16 H35 0.930 1_554 S
C17 C20 1.424 1_565 S
C17 C22 1.245 . S
C17 C23 1.428 . S
C18 C21 1.260 1_565 S
C18 C22 1.477 . S
C18 H36 0.932 . S
C19 C20 1.384 . S
C19 C21 1.479 . S
C19 H37 0.929 . S
C20 C17 1.424 1_545 S
C20 C19 1.384 . S
C20 H38 0.928 . S
C21 C18 1.260 1_545 S
C21 C19 1.479 . S
C22 C17 1.245 . S
C22 C18 1.477 . S
C22 H39 0.932 . S
C23 U6 2.882 1_556 S
C23 C17 1.428 . S
C23 O26 1.301 . S
C23 O27 1.282 1_556 S
O24 U6 2.441 . S
O24 C10 1.249 . S
O25 U6 2.420 . S
O25 C10 1.202 . S
O26 U6 2.455 1_556 S
O26 C23 1.301 . S
O27 U6 2.449 . S
O27 C23 1.282 1_554 S
H28 C1 0.934 . S
H29 C3 0.929 . S
H30 C4 0.930 . S
H31 C5 0.931 . S
H32 C12 0.932 . S
H33 C13 0.930 . S
H34 C14 0.929 1_556 S
H35 C16 0.930 1_556 S
H36 C18 0.932 . S
H37 C19 0.929 . S
H38 C20 0.928 . S
H39 C22 0.932 . S
C40 C41 1.264 . S
C40 C45 1.479 . S
C40 C50 1.465 . S
C41 C40 1.264 . S
C41 C43 1.339 . S
C41 H68 0.931 . S
C42 C43 1.395 . S
C42 C44 1.320 . S
C43 C41 1.339 . S
C43 C42 1.395 . S
C43 H69 0.929 . S
C44 C42 1.320 . S
C44 C45 1.405 . S
C44 H70 0.930 . S
C45 C40 1.479 . S
C45 C44 1.405 . S
C45 H71 0.931 . S
U46 O47 2.454 . S
U46 O48 2.458 . S
U46 C49 2.984 . S
U46 C50 2.847 . S
U46 C63 2.882 . S
U46 O64 2.441 . S
U46 O65 2.420 . S
U46 O66 2.455 . S
U46 O67 2.449 . S
O47 U46 2.454 . S
O47 C49 1.353 . S
O48 U46 2.458 . S
O48 C49 1.286 . S
C49 U46 2.984 . S
C49 O47 1.353 . S
C49 O48 1.286 . S
C49 C51 1.363 . S
C50 C40 1.465 . S
C50 U46 2.847 . S
C50 O64 1.249 . S
C50 O65 1.202 . S
C51 C49 1.363 . S
C51 C53 1.408 . S
C51 C56 1.342 . S
C52 C53 1.310 . S
C52 C55 1.461 . S
C52 H72 0.932 . S
C53 C51 1.408 . S
C53 C52 1.310 . S
C53 H73 0.930 . S
C54 C55 1.474 . S
C54 C56 1.285 . S
C54 H74 0.929 . S
C55 C52 1.461 . S
C55 C54 1.474 . S
C56 C51 1.342 . S
C56 C54 1.285 . S
C56 H75 0.930 . S
C57 C60 1.424 . S
C57 C62 1.245 . S
C57 C63 1.428 . S
C58 C61 1.260 . S
C58 C62 1.477 . S
C58 H76 0.932 . S
C59 C60 1.384 . S
C59 C61 1.479 . S
C59 H77 0.929 . S
C60 C57 1.424 . S
C60 C59 1.384 . S
C60 H78 0.928 . S
C61 C58 1.260 . S
C61 C59 1.479 . S
C62 C57 1.245 . S
C62 C58 1.477 . S
C62 H79 0.932 . S
C63 U46 2.882 . S
C63 C57 1.428 . S
C63 O66 1.301 . S
C63 O67 1.282 . S
O64 U46 2.441 . S
O64 C50 1.249 . S
O65 U46 2.420 . S
O65 C50 1.202 . S
O66 U46 2.455 . S
O66 C63 1.301 . S
O67 U46 2.449 . S
O67 C63 1.282 . S
H68 C41 0.931 . S
H69 C43 0.929 . S
H70 C44 0.930 . S
H71 C45 0.931 . S
H72 C52 0.932 . S
H73 C53 0.930 . S
H74 C54 0.929 . S
H75 C56 0.930 . S
H76 C58 0.932 . S
H77 C59 0.929 . S
H78 C60 0.928 . S
H79 C62 0.932 . S
C80 C81 1.264 . S
C80 C85 1.479 . S
C80 C90 1.465 . S
C81 C80 1.264 . S
C81 C83 1.339 . S
C81 H108 0.931 . S
C82 C83 1.395 . S
C82 C84 1.320 . S
C83 C81 1.339 . S
C83 C82 1.395 . S
C83 H109 0.929 1_545 S
C84 C82 1.320 . S
C84 C85 1.405 . S
C84 H110 0.930 . S
C85 C80 1.479 . S
C85 C84 1.405 . S
C85 H111 0.931 . S
U86 O87 2.454 . S
U86 O88 2.458 1_554 S
U86 C89 2.984 1_554 S
U86 C90 2.847 . S
U86 C103 2.882 1_554 S
U86 O104 2.441 . S
U86 O105 2.420 . S
U86 O106 2.455 1_554 S
U86 O107 2.449 1_554 S
O87 U86 2.454 . S
O87 C89 1.353 1_554 S
O88 U86 2.458 1_556 S
O88 C89 1.286 . S
C89 U86 2.984 1_556 S
C89 O87 1.353 1_556 S
C89 O88 1.286 . S
C89 C91 1.363 . S
C90 C80 1.465 . S
C90 U86 2.847 . S
C90 O104 1.249 . S
C90 O105 1.202 . S
C91 C89 1.363 . S
C91 C93 1.408 1_556 S
C91 C96 1.342 . S
C92 C93 1.310 . S
C92 C95 1.461 1_554 S
C92 H112 0.932 . S
C93 C91 1.408 1_554 S
C93 C92 1.310 . S
C93 H113 0.930 . S
C94 C95 1.474 . S
C94 C96 1.285 . S
C94 H114 0.929 . S
C95 C92 1.461 1_556 S
C95 C94 1.474 . S
C96 C91 1.342 . S
C96 C94 1.285 . S
C96 H115 0.930 . S
C97 C100 1.424 . S
C97 C102 1.245 . S
C97 C103 1.428 . S
C98 C101 1.260 . S
C98 C102 1.477 . S
C98 H116 0.932 . S
C99 C100 1.384 . S
C99 C101 1.479 . S
C99 H117 0.929 . S
C100 C97 1.424 . S
C100 C99 1.384 . S
C100 H118 0.928 . S
C101 C98 1.260 . S
C101 C99 1.479 . S
C102 C97 1.245 . S
C102 C98 1.477 . S
C102 H119 0.932 . S
C103 U86 2.882 1_556 S
C103 C97 1.428 . S
C103 O106 1.301 . S
C103 O107 1.282 . S
O104 U86 2.441 . S
O104 C90 1.249 . S
O105 U86 2.420 . S
O105 C90 1.202 . S
O106 U86 2.455 1_556 S
O106 C103 1.301 . S
O107 U86 2.449 1_556 S
O107 C103 1.282 . S
H108 C81 0.931 . S
H109 C83 0.929 1_565 S
H110 C84 0.930 . S
H111 C85 0.931 . S
H112 C92 0.932 . S
H113 C93 0.930 . S
H114 C94 0.929 . S
H115 C96 0.930 . S
H116 C98 0.932 . S
H117 C99 0.929 . S
H118 C100 0.928 . S
H119 C102 0.932 . S
C120 C121 1.264 . S
C120 C125 1.479 . S
C120 C130 1.465 . S
C121 C120 1.264 . S
C121 C123 1.339 . S
C121 H148 0.931 . S
C122 C123 1.395 . S
C122 C124 1.320 . S
C123 C121 1.339 . S
C123 C122 1.395 . S
C123 H149 0.929 . S
C124 C122 1.320 . S
C124 C125 1.405 . S
C124 H150 0.930 . S
C125 C120 1.479 . S
C125 C124 1.405 . S
C125 H151 0.931 . S
U126 O127 2.454 . S
U126 O128 2.458 . S
U126 C129 2.984 . S
U126 C130 2.847 . S
U126 C143 2.882 . S
U126 O144 2.441 . S
U126 O145 2.420 . S
U126 O146 2.455 . S
U126 O147 2.449 . S
O127 U126 2.454 . S
O127 C129 1.353 . S
O128 U126 2.458 . S
O128 C129 1.286 . S
C129 U126 2.984 . S
C129 O127 1.353 . S
C129 O128 1.286 . S
C129 C131 1.363 . S
C130 C120 1.465 . S
C130 U126 2.847 . S
C130 O144 1.249 . S
C130 O145 1.202 . S
C131 C129 1.363 . S
C131 C133 1.408 . S
C131 C136 1.342 . S
C132 C133 1.310 . S
C132 C135 1.461 . S
C132 H152 0.932 . S
C133 C131 1.408 . S
C133 C132 1.310 . S
C133 H153 0.930 . S
C134 C135 1.474 . S
C134 C136 1.285 . S
C134 H154 0.929 . S
C135 C132 1.461 . S
C135 C134 1.474 . S
C136 C131 1.342 . S
C136 C134 1.285 . S
C136 H155 0.930 . S
C137 C140 1.424 . S
C137 C142 1.245 . S
C137 C143 1.428 . S
C138 C141 1.260 . S
C138 C142 1.477 . S
C138 H156 0.932 . S
C139 C140 1.384 . S
C139 C141 1.479 . S
C139 H157 0.929 . S
C140 C137 1.424 . S
C140 C139 1.384 . S
C140 H158 0.928 . S
C141 C138 1.260 . S
C141 C139 1.479 . S
C142 C137 1.245 . S
C142 C138 1.477 . S
C142 H159 0.932 . S
C143 U126 2.882 . S
C143 C137 1.428 . S
C143 O146 1.301 . S
C143 O147 1.282 . S
O144 U126 2.441 . S
O144 C130 1.249 . S
O145 U126 2.420 . S
O145 C130 1.202 . S
O146 U126 2.455 . S
O146 C143 1.301 . S
O147 U126 2.449 . S
O147 C143 1.282 . S
H148 C121 0.931 . S
H149 C123 0.929 . S
H150 C124 0.930 . S
H151 C125 0.931 . S
H152 C132 0.932 . S
H153 C133 0.930 . S
H154 C134 0.929 . S
H155 C136 0.930 . S
H156 C138 0.932 . S
H157 C139 0.929 . S
H158 C140 0.928 . S
H159 C142 0.932 . S
O160 Mg161 1.990 1_655 S
O160 C174 1.253 . S
Mg161 O160 1.990 1_455 S
Mg161 O164 2.180 . S
Mg161 O165 2.117 . S
Mg161 O179 2.030 . S
O162 Mg163 2.072 1_655 S
O162 C174 1.260 . S
Mg163 O162 2.072 1_455 S
Mg163 O164 2.099 . S
Mg163 O166 2.079 1_545 S
Mg163 O167 2.072 1_455 S
Mg163 O169 2.099 1_445 S
Mg163 O180 2.079 1_545 S
O164 Mg161 2.180 . S
O164 Mg163 2.099 . S
O164 C175 1.279 . S
O165 Mg161 2.117 . S
O165 C175 1.250 . S
O166 Mg163 2.079 1_565 S
O166 C176 1.264 . S
O167 Mg163 2.072 1_655 S
O167 C177 1.260 . S
Mg168 O169 2.180 . S
Mg168 O170 2.030 1_655 S
Mg168 O171 1.990 . S
Mg168 O172 2.117 . S
O169 Mg163 2.099 1_665 S
O169 Mg168 2.180 . S
O169 C178 1.279 . S
O170 Mg168 2.030 1_455 S
O170 C176 1.248 . S
O171 Mg168 1.990 . S
O171 C177 1.253 1_565 S
O172 Mg168 2.117 . S
O172 C178 1.250 . S
C173 O179 1.248 1_565 S
C173 O180 1.264 . S
C174 O160 1.253 . S
C174 O162 1.260 . S
C175 O164 1.279 . S
C175 O165 1.250 . S
C176 O166 1.264 . S
C176 O170 1.248 . S
C177 O167 1.260 . S
C177 O171 1.253 1_545 S
C178 O169 1.279 . S
C178 O172 1.250 . S
O179 Mg161 2.030 . S
O179 C173 1.248 1_545 S
O180 Mg163 2.079 1_565 S
O180 C173 1.264 . S
O181 Mg182 1.990 . S
O181 C195 1.253 . S
Mg182 O181 1.990 . S
Mg182 O185 2.180 . S
Mg182 O186 2.117 . S
Mg182 O200 2.030 . S
O183 Mg184 2.072 . S
O183 C195 1.260 . S
Mg184 O183 2.072 . S
Mg184 O185 2.099 . S
Mg184 O187 2.079 1_554 S
Mg184 O188 2.072 1_554 S
Mg184 O190 2.099 . S
Mg184 O201 2.079 . S
O185 Mg182 2.180 . S
O185 Mg184 2.099 . S
O185 C196 1.279 . S
O186 Mg182 2.117 . S
O186 C196 1.250 . S
O187 Mg184 2.079 1_556 S
O187 C197 1.264 . S
O188 Mg184 2.072 1_556 S
O188 C198 1.260 . S
Mg189 O190 2.180 1_556 S
Mg189 O191 2.030 . S
Mg189 O192 1.990 . S
Mg189 O193 2.117 . S
O190 Mg184 2.099 . S
O190 Mg189 2.180 1_554 S
O190 C199 1.279 . S
O191 Mg189 2.030 . S
O191 C197 1.248 . S
O192 Mg189 1.990 . S
O192 C198 1.253 . S
O193 Mg189 2.117 . S
O193 C199 1.250 1_556 S
C194 O200 1.248 . S
C194 O201 1.264 . S
C195 O181 1.253 . S
C195 O183 1.260 . S
C196 O185 1.279 . S
C196 O186 1.250 . S
C197 O187 1.264 . S
C197 O191 1.248 . S
C198 O188 1.260 . S
C198 O192 1.253 . S
C199 O190 1.279 . S
C199 O193 1.250 1_554 S
O200 Mg182 2.030 . S
O200 C194 1.248 . S
O201 Mg184 2.079 . S
O201 C194 1.264 . S
C175 C135 2.189 . S
C15 C199 2.152 . S
C55 C178 2.118 . S
C95 C196 2.238 1_556 S
C176 C2 2.654 . S
C198 C42 2.052 . S
C82 C177 1.834 . S
C141 C197 2.122 . S
C195 C61 1.657 . S
C174 C101 2.318 . S
C194 C122 2.677 . S
C21 C173 2.155 1_545 S
