# Generated by pormake.
# Topology scu, (8,4)-cn, num edge types: 1
# Building blocks:
#     Node 0, Type 0, BuildingBlock: VETTIZ_charged_sbu_0, # of connection points: 8
#     Node 1, Type 1, BuildingBlock: MUDLON_clean_sbu_0, # of connection points: 4
#     Node 2, Type 1, BuildingBlock: MUDLON_clean_sbu_0, # of connection points: 4
#     Edge 3, Type (0, 1), BuildingBlock: EYOCIG_clean_linker_4, # of connection points: 2
#     Edge 4, Type (0, 1), BuildingBlock: EYOCIG_clean_linker_4, # of connection points: 2
#     Edge 5, Type (0, 1), BuildingBlock: EYOCIG_clean_linker_4, # of connection points: 2
#     Edge 6, Type (0, 1), BuildingBlock: EYOCIG_clean_linker_4, # of connection points: 2
#     Edge 7, Type (0, 1), BuildingBlock: EYOCIG_clean_linker_4, # of connection points: 2
#     Edge 8, Type (0, 1), BuildingBlock: EYOCIG_clean_linker_4, # of connection points: 2
#     Edge 9, Type (0, 1), BuildingBlock: EYOCIG_clean_linker_4, # of connection points: 2
#     Edge 10, Type (0, 1), BuildingBlock: EYOCIG_clean_linker_4, # of connection points: 2
# Relax obj value: 0.036
# Max RMSD: 0.093
# Mean RMSD: 0.083
data_MOF--net-scu--node1-VETTIZ_charged_sbu_0--node2-MUDLON_clean_sbu_0--edge1-EYOCIG_clean_linker_4
_symmetry_space_group_name_H-M    P1
_symmetry_Int_Tables_number       1
_symmetry_cell_setting            triclinic
loop_
_symmetry_equiv_pos_as_xyz
'x, y, z'
_cell_length_a     21.079302
_cell_length_b     21.039022
_cell_length_c     16.627398
_cell_angle_alpha  90.038878
_cell_angle_beta   89.913435
_cell_angle_gamma 89.419775
loop_
_atom_site_label
_atom_site_type_symbol
_atom_site_fract_x
_atom_site_fract_y
_atom_site_fract_z
_atom_type_partial_charge
Fe0 Fe 0.98899 -0.00828 0.18785 0.0
O1 O 0.96121 0.01828 0.06815 0.0
Fe2 Fe 0.08479 0.89336 0.02919 0.0
Fe3 Fe 0.89403 0.08526 0.02449 0.0
O4 O 0.01814 0.96235 0.06955 0.0
O5 O 0.01866 0.96147 0.98571 0.0
O6 O 0.96167 0.0173 0.98435 0.0
Fe7 Fe -0.00832 0.98901 0.86608 0.0
C8 C 0.84077 0.0059 0.16821 0.0
O9 O -0.00494 0.08884 0.19813 0.0
O10 O 0.93857 0.14199 0.10586 0.0
O11 O 0.08843 -0.00607 0.85591 0.0
O12 O 0.14212 0.93807 0.94823 0.0
O13 O 0.1404 0.93889 0.1112 0.0
O14 O 0.08575 -0.00269 0.20044 0.0
O15 O 0.94015 0.14041 0.94264 0.0
O16 O -0.00158 0.08557 0.85344 0.0
C17 C 0.13719 0.97591 0.17107 0.0
O18 O 0.98479 0.89241 0.8551 0.0
O19 O 0.03901 0.8373 0.94762 0.0
O20 O 0.89221 0.98676 0.19965 0.0
O21 O 0.83754 0.04022 0.10592 0.0
C22 C 0.97429 0.13983 0.1668 0.0
C23 C 0.97702 0.13705 0.88272 0.0
C24 C 0.84341 0.00417 0.88111 0.0
O25 O 0.83921 0.0392 0.94267 0.0
O26 O 0.89526 0.98428 0.85136 0.0
C27 C 0.13952 0.97383 0.88719 0.0
O28 O 0.03745 0.83857 0.11032 0.0
O29 O 0.9823 0.89478 0.20125 0.0
C30 C 0.00359 0.84079 0.8864 0.0
C31 C 0.00148 0.8427 0.17103 0.0
Mg32 Mg 0.97722 0.48942 0.52687 0.0
C33 C 0.00253 0.39687 0.39865 0.0
O34 O 0.05857 0.42152 0.41098 0.0
C35 C -0.00497 0.59151 0.64564 0.0
O36 O 0.05349 0.5805 0.62172 0.0
C37 C 0.00313 0.38958 0.64359 0.0
O38 O 0.05971 0.40608 0.61887 0.0
O39 O 0.95457 0.41778 0.61536 0.0
O40 O 0.95522 0.417 0.43892 0.0
O41 O 0.95132 0.56058 0.43849 0.0
C42 C -0.0037 0.58427 0.39787 0.0
O43 O 0.05468 0.56403 0.40937 0.0
O44 O 0.95001 0.55941 0.61622 0.0
Mg45 Mg 0.49003 0.00314 0.52717 0.0
C46 C 0.39532 0.98124 0.39924 0.0
O47 O 0.4169 0.92333 0.41146 0.0
C48 C 0.58994 0.97972 0.64416 0.0
O49 O 0.57459 0.9226 0.61985 0.0
C50 C 0.38917 0.98149 0.64612 0.0
O51 O 0.40092 0.92362 0.62021 0.0
O52 O 0.42021 0.0277 0.61768 0.0
O53 O 0.41825 0.02724 0.43882 0.0
O54 O 0.56326 0.02469 0.44017 0.0
C55 C 0.58397 0.97724 0.40056 0.0
O56 O 0.55889 0.92119 0.41206 0.0
O57 O 0.56084 0.02772 0.61563 0.0
C58 C -0.00914 0.24677 0.24701 0.0
C59 C 0.98321 0.19803 0.21025 0.0
C60 C -0.00597 0.30089 0.29707 0.0
C61 C -0.00356 0.34463 0.34381 0.0
C62 C 0.73525 0.98907 0.25099 0.0
C63 C 0.78328 -0.00311 0.21296 0.0
C64 C 0.68135 0.98572 0.30129 0.0
C65 C 0.63697 0.98329 0.34697 0.0
C66 C 0.98079 0.73597 0.2502 0.0
C67 C -0.01026 0.78515 0.21486 0.0
C68 C 0.9796 0.68079 0.29856 0.0
C69 C 0.98467 0.63668 0.34448 0.0
C70 C 0.24359 -0.00569 0.25137 0.0
C71 C 0.19468 0.98631 0.21531 0.0
C72 C 0.29844 -0.00458 0.30013 0.0
C73 C 0.34266 -0.00878 0.34587 0.0
C74 C 0.98154 0.73591 0.80431 0.0
C75 C -0.00793 0.78329 0.8426 0.0
C76 C 0.9785 0.68335 0.75172 0.0
C77 C 0.98268 0.64085 0.70331 0.0
C78 C 0.24508 -0.00679 0.80562 0.0
C79 C 0.19727 0.98398 0.84351 0.0
C80 C 0.29776 -0.00438 0.75326 0.0
C81 C 0.33995 -0.00797 0.70442 0.0
C82 C -0.00657 0.24173 0.79836 0.0
C83 C 0.98588 0.19398 0.83697 0.0
C84 C -0.00431 0.29489 0.74684 0.0
C85 C -0.00292 0.33831 0.6997 0.0
C86 C 0.73872 0.98986 0.79665 0.0
C87 C 0.78685 -0.00393 0.83469 0.0
C88 C 0.68499 0.98853 0.74626 0.0
C89 C 0.64133 0.98695 0.69965 0.0
loop_
_geom_bond_atom_site_label_1
_geom_bond_atom_site_label_2
_geom_bond_distance
_geom_bond_site_symmetry_2
_ccdc_geom_bond_type
Fe0 O1 1.895 . S
Fe0 O4 1.705 1_645 S
Fe0 O9 2.077 1_655 S
Fe0 O14 1.917 1_655 S
Fe0 O20 2.095 1_545 S
Fe0 O29 1.938 1_545 S
O1 Fe0 1.895 . S
O1 Fe3 1.715 . S
Fe2 O4 1.886 . S
Fe2 O5 1.715 1_554 S
Fe2 O12 1.935 1_554 S
Fe2 O13 2.077 . S
Fe2 O19 1.935 1_554 S
Fe2 O28 2.077 . S
Fe3 O1 1.715 . S
Fe3 O6 1.886 1_554 S
Fe3 O10 1.935 . S
Fe3 O15 2.077 1_554 S
Fe3 O21 1.935 . S
Fe3 O25 2.077 1_554 S
O4 Fe0 1.705 1_465 S
O4 Fe2 1.886 . S
O5 Fe2 1.715 1_556 S
O5 Fe7 1.895 . S
O6 Fe3 1.886 1_556 S
O6 Fe7 1.705 1_645 S
Fe7 O5 1.895 . S
Fe7 O6 1.705 1_465 S
Fe7 O11 2.077 1_565 S
Fe7 O16 1.917 1_565 S
Fe7 O18 2.095 1_455 S
Fe7 O26 1.938 1_455 S
C8 O20 1.381 1_545 S
C8 O21 1.421 . S
O9 Fe0 2.077 1_455 S
O9 C22 1.381 1_455 S
O10 Fe3 1.935 . S
O10 C22 1.421 . S
O11 Fe7 2.077 1_545 S
O11 C27 1.381 1_545 S
O12 Fe2 1.935 1_556 S
O12 C27 1.421 . S
O13 Fe2 2.077 . S
O13 C17 1.381 . S
O14 Fe0 1.917 1_455 S
O14 C17 1.421 1_545 S
O15 Fe3 2.077 1_556 S
O15 C23 1.381 . S
O16 Fe7 1.917 1_545 S
O16 C23 1.421 1_455 S
C17 O13 1.381 . S
C17 O14 1.421 1_565 S
O18 Fe7 2.095 1_655 S
O18 C30 1.381 1_655 S
O19 Fe2 1.935 1_556 S
O19 C30 1.421 . S
O20 Fe0 2.095 1_565 S
O20 C8 1.381 1_565 S
O21 Fe3 1.935 . S
O21 C8 1.421 . S
C22 O9 1.381 1_655 S
C22 O10 1.421 . S
C23 O15 1.381 . S
C23 O16 1.421 1_655 S
C24 O25 1.381 . S
C24 O26 1.421 1_545 S
O25 Fe3 2.077 1_556 S
O25 C24 1.381 . S
O26 Fe7 1.938 1_655 S
O26 C24 1.421 1_565 S
C27 O11 1.381 1_565 S
C27 O12 1.421 . S
O28 Fe2 2.077 . S
O28 C31 1.381 . S
O29 Fe0 1.938 1_565 S
O29 C31 1.421 1_655 S
C30 O18 1.381 1_455 S
C30 O19 1.421 . S
C31 O28 1.381 . S
C31 O29 1.421 1_455 S
Mg32 O39 2.141 . S
Mg32 O40 2.048 . S
Mg32 O41 2.048 . S
Mg32 O44 2.141 . S
C33 O34 1.313 . S
C33 O40 1.195 1_455 S
O34 C33 1.313 . S
C35 O36 1.245 . S
C35 O44 1.289 1_455 S
O36 C35 1.245 . S
C37 O38 1.245 . S
C37 O39 1.289 1_455 S
O38 C37 1.245 . S
O39 Mg32 2.141 . S
O39 C37 1.289 1_655 S
O40 Mg32 2.048 . S
O40 C33 1.195 1_655 S
O41 Mg32 2.048 . S
O41 C42 1.195 1_655 S
C42 O41 1.195 1_455 S
C42 O43 1.313 . S
O43 C42 1.313 . S
O44 Mg32 2.141 . S
O44 C35 1.289 1_655 S
Mg45 O52 2.141 . S
Mg45 O53 2.048 . S
Mg45 O54 2.048 . S
Mg45 O57 2.141 . S
C46 O47 1.313 . S
C46 O53 1.195 1_565 S
O47 C46 1.313 . S
C48 O49 1.245 . S
C48 O57 1.289 1_565 S
O49 C48 1.245 . S
C50 O51 1.245 . S
C50 O52 1.289 1_565 S
O51 C50 1.245 . S
O52 Mg45 2.141 . S
O52 C50 1.289 1_545 S
O53 Mg45 2.048 . S
O53 C46 1.195 1_545 S
O54 Mg45 2.048 . S
O54 C55 1.195 1_545 S
C55 O54 1.195 1_565 S
C55 O56 1.313 . S
O56 C55 1.313 . S
O57 Mg45 2.141 . S
O57 C48 1.289 1_545 S
C58 C59 1.170 . S
C58 C60 1.380 . S
C59 C58 1.170 . S
C60 C58 1.380 . S
C60 C61 1.170 . S
C61 C60 1.170 . S
C62 C63 1.170 . S
C62 C64 1.380 . S
C63 C62 1.170 . S
C64 C62 1.380 . S
C64 C65 1.170 . S
C65 C64 1.170 . S
C66 C67 1.170 . S
C66 C68 1.380 . S
C67 C66 1.170 . S
C68 C66 1.380 . S
C68 C69 1.170 . S
C69 C68 1.170 . S
C70 C71 1.170 . S
C70 C72 1.380 . S
C71 C70 1.170 . S
C72 C70 1.380 . S
C72 C73 1.170 . S
C73 C72 1.170 . S
C74 C75 1.170 . S
C74 C76 1.380 . S
C75 C74 1.170 . S
C76 C74 1.380 . S
C76 C77 1.170 . S
C77 C76 1.170 . S
C78 C79 1.170 . S
C78 C80 1.380 . S
C79 C78 1.170 . S
C80 C78 1.380 . S
C80 C81 1.170 . S
C81 C80 1.170 . S
C82 C83 1.170 . S
C82 C84 1.380 . S
C83 C82 1.170 . S
C84 C82 1.380 . S
C84 C85 1.170 . S
C85 C84 1.170 . S
C86 C87 1.171 . S
C86 C88 1.380 . S
C87 C86 1.171 . S
C88 C86 1.380 . S
C88 C89 1.170 . S
C89 C88 1.170 . S
C59 C22 1.444 1_455 S
C61 C33 1.471 . S
C63 C8 1.432 1_565 S
C65 C55 1.471 . S
C67 C31 1.442 1_655 S
C69 C42 1.484 1_655 S
C71 C17 1.424 . S
C73 C46 1.469 . S
C75 C30 1.382 1_655 S
C77 C35 1.419 1_655 S
C79 C27 1.353 . S
C81 C50 1.403 . S
C85 C37 1.399 . S
C83 C23 1.355 1_455 S
C87 C24 1.346 . S
C89 C48 1.415 1_545 S
