# Generated by pormake.
# Topology tsx, (6,3)-cn, num edge types: 1
# Building blocks:
#     Node 0, Type 0, BuildingBlock: CIFDUS_clean_sbu_1, # of connection points: 6
#     Node 1, Type 0, BuildingBlock: CIFDUS_clean_sbu_1, # of connection points: 6
#     Node 2, Type 1, BuildingBlock: WUSLED_clean_sbu_0, # of connection points: 3
#     Node 3, Type 1, BuildingBlock: WUSLED_clean_sbu_0, # of connection points: 3
#     Node 4, Type 1, BuildingBlock: WUSLED_clean_sbu_0, # of connection points: 3
#     Node 5, Type 1, BuildingBlock: WUSLED_clean_sbu_0, # of connection points: 3
#     Edge 6, Type (0, 1), BuildingBlock: EYOCIG_clean_linker_4, # of connection points: 2
#     Edge 7, Type (0, 1), BuildingBlock: EYOCIG_clean_linker_4, # of connection points: 2
#     Edge 8, Type (0, 1), BuildingBlock: EYOCIG_clean_linker_4, # of connection points: 2
#     Edge 9, Type (0, 1), BuildingBlock: EYOCIG_clean_linker_4, # of connection points: 2
#     Edge 10, Type (0, 1), BuildingBlock: EYOCIG_clean_linker_4, # of connection points: 2
#     Edge 11, Type (0, 1), BuildingBlock: EYOCIG_clean_linker_4, # of connection points: 2
#     Edge 12, Type (0, 1), BuildingBlock: EYOCIG_clean_linker_4, # of connection points: 2
#     Edge 13, Type (0, 1), BuildingBlock: EYOCIG_clean_linker_4, # of connection points: 2
#     Edge 14, Type (0, 1), BuildingBlock: EYOCIG_clean_linker_4, # of connection points: 2
#     Edge 15, Type (0, 1), BuildingBlock: EYOCIG_clean_linker_4, # of connection points: 2
#     Edge 16, Type (0, 1), BuildingBlock: EYOCIG_clean_linker_4, # of connection points: 2
#     Edge 17, Type (0, 1), BuildingBlock: EYOCIG_clean_linker_4, # of connection points: 2
# Relax obj value: 0.120
# Max RMSD: 0.152
# Mean RMSD: 0.113
data_MOF--net-tsx--node1-CIFDUS_clean_sbu_1--node2-WUSLED_clean_sbu_0--edge1-EYOCIG_clean_linker_4
_symmetry_space_group_name_H-M    P1
_symmetry_Int_Tables_number       1
_symmetry_cell_setting            triclinic
loop_
_symmetry_equiv_pos_as_xyz
'x, y, z'
_cell_length_a     19.564042
_cell_length_b     24.225605
_cell_length_c     39.421039
_cell_angle_alpha  97.072575
_cell_angle_beta   91.668673
_cell_angle_gamma 90.673827
loop_
_atom_site_label
_atom_site_type_symbol
_atom_site_fract_x
_atom_site_fract_y
_atom_site_fract_z
_atom_type_partial_charge
O0 O 1.01287 0.1141 0.02514 0.0
Mn1 Mn 0.07023 0.04065 0.01663 0.0
O2 O 0.91347 0.09746 0.9954 0.0
Mn3 Mn 0.93855 0.02924 0.9739 0.0
O4 O 0.12768 0.96691 1.00813 0.0
O5 O 0.15572 0.08837 0.02964 0.0
Mn6 Mn 0.20778 0.05177 0.05638 0.0
O7 O 0.0571 0.02809 0.06823 0.0
O8 O 0.23243 0.98562 0.03208 0.0
O9 O 0.08606 0.05382 0.96521 0.0
O10 O 0.98844 0.03149 0.9353 0.0
O11 O 0.25566 0.11579 0.05302 0.0
O12 O 0.15982 0.04499 0.09522 0.0
C13 C 0.93095 0.95829 0.99891 0.0
C14 C 0.95291 0.12871 0.01569 0.0
C15 C 0.18977 0.95319 0.01453 0.0
C16 C 0.20341 0.12673 0.03425 0.0
C17 C 0.09653 0.0327 0.09528 0.0
C18 C 0.05076 0.04653 0.9369 0.0
O19 O 0.9833 0.99285 1.0039 0.0
O20 O 0.88402 0.96949 0.97707 0.0
O21 O 0.51334 0.61431 0.52502 0.0
Mn22 Mn 0.57042 0.54069 0.51662 0.0
O23 O 0.41381 0.59772 0.49539 0.0
Mn24 Mn 0.43856 0.52931 0.47405 0.0
O25 O 0.62757 0.46678 0.50819 0.0
O26 O 0.6561 0.58826 0.52941 0.0
Mn27 Mn 0.70831 0.55168 0.55609 0.0
O28 O 0.55759 0.5285 0.5683 0.0
O29 O 0.7326 0.48541 0.53181 0.0
O30 O 0.58605 0.55351 0.46512 0.0
O31 O 0.48828 0.53116 0.43535 0.0
O32 O 0.75625 0.61561 0.55255 0.0
O33 O 0.6606 0.54513 0.59504 0.0
C34 C 0.43082 0.45859 0.49925 0.0
C35 C 0.45341 0.629 0.51557 0.0
C36 C 0.68968 0.45297 0.51447 0.0
C37 C 0.70385 0.62657 0.53389 0.0
C38 C 0.59726 0.53307 0.59526 0.0
C39 C 0.55063 0.5461 0.43685 0.0
O40 O 0.4833 0.49303 0.50411 0.0
O41 O 0.38383 0.46977 0.47743 0.0
C42 C 0.97139 0.13801 0.485 0.0
C43 C 0.94963 0.16154 0.45573 0.0
C44 C 0.8773 0.22579 0.49028 0.0
C45 C 0.90303 0.20529 0.45841 0.0
C46 C 0.8994 0.20267 0.51955 0.0
C47 C 0.94642 0.15926 0.51691 0.0
U48 U 0.07568 0.03028 0.43114 0.0
O49 O 0.17836 0.99721 0.43924 0.0
O50 O 0.08866 0.94059 0.43387 0.0
C51 C 0.1554 0.94578 0.43823 0.0
C52 C 1.01856 0.09061 0.48244 0.0
C53 C 0.19034 0.9094 0.46026 0.0
C54 C 0.23458 0.88585 0.51501 0.0
C55 C 0.19544 0.9206 0.49613 0.0
C56 C 0.26186 0.82866 0.46244 0.0
C57 C 0.26872 0.8402 0.49803 0.0
C58 C 0.22302 0.8629 0.44378 0.0
C59 C 0.05774 0.04472 0.33263 0.0
C60 C 0.10319 0.99147 0.28198 0.0
C61 C 0.02681 0.06796 0.27607 0.0
C62 C 1.02238 0.07782 0.3115 0.0
C63 C 0.06673 0.02469 0.26103 0.0
C64 C 0.09869 1.00141 0.31781 0.0
C65 C 0.04829 0.05713 0.36969 0.0
O66 O 0.9924 0.04333 0.46744 0.0
O67 O 0.08035 0.10078 0.47227 0.0
O68 O 0.10082 0.07782 0.38883 0.0
O69 O 1.01069 0.02199 0.38424 0.0
H70 H 0.96845 0.1459 0.43085 0.0
H71 H 0.88688 0.22296 0.43558 0.0
H72 H 0.88045 0.21818 0.54443 0.0
H73 H 0.96329 0.14234 0.5398 0.0
H74 H 0.23916 0.89511 0.54259 0.0
H75 H 0.1704 0.95633 0.50932 0.0
H76 H 0.28764 0.79358 0.44891 0.0
H77 H 0.21971 0.85366 0.41616 0.0
H78 H 0.13469 0.95799 0.27069 0.0
H79 H 0.99863 0.09416 0.26037 0.0
H80 H 0.99066 0.11139 0.32249 0.0
H81 H 0.12653 0.97542 0.33375 0.0
C82 C 0.92817 0.95983 0.54548 0.0
C83 C 0.90853 0.92982 0.57203 0.0
C84 C 0.83854 0.86723 0.53168 0.0
C85 C 0.864 0.88371 0.56512 0.0
C86 C 0.85804 0.89721 0.50524 0.0
C87 C 0.90251 0.9432 0.51212 0.0
U88 U 0.0358 0.06716 0.60521 0.0
O89 O 0.13875 0.1009 0.59877 0.0
O90 O 0.05105 0.15746 0.60354 0.0
C91 C 0.11749 0.1524 0.60041 0.0
C92 C 0.97486 0.00858 0.55189 0.0
C93 C 0.1553 0.19168 0.58181 0.0
C94 C 0.22072 0.21495 0.53366 0.0
C95 C 0.17501 0.17917 0.54771 0.0
C96 C 0.22511 0.27618 0.58713 0.0
C97 C 0.24733 0.26287 0.55376 0.0
C98 C 0.17946 0.24101 0.60095 0.0
C99 C 0.03102 0.05172 0.70306 0.0
C100 C 0.09881 0.0984 0.75136 0.0
C101 C 1.01194 0.03027 0.7607 0.0
C102 C 0.99564 0.02239 0.72572 0.0
C103 C 0.06401 0.06774 0.77375 0.0
C104 C 0.08244 0.09039 0.71604 0.0
C105 C 1.01397 0.0384 0.66623 0.0
O106 O 0.94886 0.05365 0.56825 0.0
O107 O 0.03715 0.99883 0.56282 0.0
O108 O 0.06291 0.01757 0.64665 0.0
O109 O 0.97555 0.07374 0.65191 0.0
H110 H 0.9277 0.94198 0.59797 0.0
H111 H 0.84968 0.86081 0.58584 0.0
H112 H 0.83921 0.88494 0.47926 0.0
H113 H 0.91693 0.96573 0.49132 0.0
H114 H 0.23685 0.20435 0.50764 0.0
H115 H 0.15708 0.14121 0.5325 0.0
H116 H 0.24471 0.31304 0.60297 0.0
H117 H 0.16524 0.25123 0.62733 0.0
H118 H 0.13902 0.12778 0.76106 0.0
H119 H 0.98435 1.00639 0.77753 0.0
H120 H 0.95585 0.99246 0.71621 0.0
H121 H 0.11029 0.11357 0.69895 0.0
C122 C 0.47146 0.63811 0.98494 0.0
C123 C 0.44979 0.66161 0.95564 0.0
C124 C 0.37761 0.72606 0.99014 0.0
C125 C 0.40331 0.70545 0.95828 0.0
C126 C 0.39964 0.70297 0.01943 0.0
C127 C 0.44653 0.65948 0.01683 0.0
U128 U 0.57595 0.53025 0.93125 0.0
O129 O 0.67853 0.49712 0.93956 0.0
O130 O 0.58878 0.44056 0.93402 0.0
C131 C 0.6555 0.44571 0.93851 0.0
C132 C 0.51854 0.59064 0.98244 0.0
C133 C 0.69024 0.40929 0.96059 0.0
C134 C 0.734 0.3856 0.01539 0.0
C135 C 0.69505 0.42041 0.99647 0.0
C136 C 0.76166 0.32851 0.96285 0.0
C137 C 0.76823 0.33996 0.99845 0.0
C138 C 0.72301 0.36281 0.94414 0.0
C139 C 0.55866 0.54493 0.83273 0.0
C140 C 0.60435 0.49198 0.78203 0.0
C141 C 0.52783 0.56842 0.77621 0.0
C142 C 0.5233 0.5781 0.81163 0.0
C143 C 0.56787 0.52525 0.76113 0.0
C144 C 0.59974 0.50174 0.81786 0.0
C145 C 0.54908 0.55717 0.86978 0.0
O146 O 0.49238 0.54339 0.96739 0.0
O147 O 0.58043 0.60074 0.97238 0.0
O148 O 0.60153 0.57778 0.88901 0.0
O149 O 0.51133 0.52201 0.88424 0.0
H150 H 0.46858 0.64588 0.93077 0.0
H151 H 0.38723 0.7231 0.93543 0.0
H152 H 0.38071 0.71856 0.0443 0.0
H153 H 0.46334 0.64259 0.03974 0.0
H154 H 0.73836 0.3948 0.04298 0.0
H155 H 0.66994 0.45612 1.00963 0.0
H156 H 0.78752 0.29344 0.94934 0.0
H157 H 0.71993 0.35362 0.91652 0.0
H158 H 0.63593 0.45858 0.77071 0.0
H159 H 0.49963 0.59464 0.76054 0.0
H160 H 0.49148 0.61158 0.82265 0.0
H161 H 0.62759 0.47571 0.83378 0.0
C162 C 0.42805 0.45994 0.04543 0.0
C163 C 0.40849 0.42999 0.07202 0.0
C164 C 0.33842 0.3673 0.03175 0.0
C165 C 0.36396 0.38386 0.06517 0.0
C166 C 0.35785 0.39723 1.00528 0.0
C167 C 0.40232 0.44323 0.0121 0.0
U168 U 0.53566 0.56731 0.1051 0.0
O169 O 0.63871 0.60091 0.09872 0.0
O170 O 0.55111 0.65758 0.10337 0.0
C171 C 0.61755 0.65243 0.1003 0.0
C172 C 0.47476 0.50868 0.05179 0.0
C173 C 0.65552 0.69161 0.08169 0.0
C174 C 0.72021 0.71495 0.03332 0.0
C175 C 0.6745 0.67928 0.04746 0.0
C176 C 0.72612 0.77567 0.08698 0.0
C177 C 0.74756 0.76256 0.05346 0.0
C178 C 0.68046 0.74062 0.10089 0.0
C179 C 0.53063 0.5518 0.20295 0.0
C180 C 0.59856 0.59811 0.25131 0.0
C181 C 0.5114 0.53015 0.26053 0.0
C182 C 0.4951 0.52245 0.22555 0.0
C183 C 0.56362 0.56743 0.27364 0.0
C184 C 0.58219 0.59028 0.21599 0.0
C185 C 0.51365 0.53859 0.16611 0.0
O186 O 0.44878 0.5538 0.0681 0.0
O187 O 0.53704 0.49894 0.06274 0.0
O188 O 0.56258 0.51769 0.14654 0.0
O189 O 0.47536 0.57401 0.15179 0.0
H190 H 0.42772 0.4422 0.09794 0.0
H191 H 0.34971 0.361 0.08592 0.0
H192 H 0.33895 0.38491 0.9793 0.0
H193 H 0.41668 0.46573 0.99126 0.0
H194 H 0.73573 0.7045 1.00718 0.0
H195 H 0.65596 0.64156 0.03222 0.0
H196 H 0.7463 0.81228 0.10285 0.0
H197 H 0.66682 0.75068 0.12736 0.0
H198 H 0.63888 0.62735 0.26105 0.0
H199 H 0.4837 0.50625 0.27732 0.0
H200 H 0.45521 0.49265 0.216 0.0
H201 H 0.61016 0.61347 0.19894 0.0
C202 C 0.22044 0.2267 0.01848 0.0
C203 C 0.20105 0.18028 0.02212 0.0
C204 C 0.25693 0.278 0.02023 0.0
C205 C 0.29389 0.31884 0.02455 0.0
C206 C 0.24501 0.85527 0.99811 0.0
C207 C 0.21332 0.89786 1.00371 0.0
C208 C 0.28901 0.80886 0.99473 0.0
C209 C 0.32934 0.77116 0.99273 0.0
C210 C 0.88937 0.87188 0.02631 0.0
C211 C 0.91896 0.91146 0.01725 0.0
C212 C 0.84277 0.82995 0.03387 0.0
C213 C 0.79948 0.79748 0.041 0.0
C214 C 0.8955 0.2259 0.02897 0.0
C215 C 0.92878 0.18397 0.02581 0.0
C216 C 0.8508 0.27055 0.02535 0.0
C217 C 0.81214 0.30494 0.01641 0.0
C218 C 0.72062 0.72661 0.51821 0.0
C219 C 0.70131 0.68016 0.52182 0.0
C220 C 0.75707 0.77793 0.52002 0.0
C221 C 0.79402 0.81877 0.52441 0.0
C222 C 0.74452 0.35486 0.49825 0.0
C223 C 0.71295 0.39752 0.50376 0.0
C224 C 0.78853 0.30846 0.49491 0.0
C225 C 0.82894 0.27082 0.49291 0.0
C226 C 0.38919 0.37232 0.52678 0.0
C227 C 0.41882 0.41184 0.51766 0.0
C228 C 0.3426 0.3304 0.53436 0.0
C229 C 0.29933 0.29788 0.54144 0.0
C230 C 0.39628 0.72633 0.52862 0.0
C231 C 0.42948 0.68436 0.52557 0.0
C232 C 0.35156 0.77093 0.5249 0.0
C233 C 0.31281 0.80524 0.51595 0.0
C234 C 0.06449 0.01672 0.1576 0.0
C235 C 0.07092 0.02257 0.12783 0.0
C236 C 0.06642 0.01374 0.19332 0.0
C237 C 0.06934 0.01582 0.22414 0.0
C238 C 0.08935 0.06588 0.87596 0.0
C239 C 0.07944 0.05869 0.90529 0.0
C240 C 0.08895 0.0717 0.84052 0.0
C241 C 0.08138 0.07282 0.81001 0.0
C242 C 0.56557 0.51746 0.65769 0.0
C243 C 0.57186 0.52317 0.6279 0.0
C244 C 0.56759 0.51451 0.69341 0.0
C245 C 0.5705 0.5165 0.72423 0.0
C246 C 0.58904 0.56521 0.37583 0.0
C247 C 0.57918 0.5581 0.40518 0.0
C248 C 0.5886 0.57106 0.3404 0.0
C249 C 0.581 0.57231 0.30989 0.0
loop_
_geom_bond_atom_site_label_1
_geom_bond_atom_site_label_2
_geom_bond_distance
_geom_bond_site_symmetry_2
_ccdc_geom_bond_type
O0 Mn1 2.163 1_655 S
O0 C14 1.244 1_554 S
Mn1 O0 2.163 1_455 S
Mn1 O4 2.159 1_544 S
Mn1 O5 2.224 . S
Mn1 O7 2.193 . S
Mn1 O9 2.130 1_554 S
Mn1 O19 2.217 1_444 S
O2 Mn3 2.087 . S
O2 C14 1.256 . S
Mn3 O2 2.087 . S
Mn3 O10 2.089 . S
Mn3 O19 2.290 1_545 S
Mn3 O20 2.251 1_545 S
O4 Mn1 2.159 1_566 S
O4 C15 1.239 1_556 S
O5 Mn1 2.224 . S
O5 Mn6 2.290 . S
O5 C16 1.278 . S
Mn6 O5 2.290 . S
Mn6 O8 2.089 1_545 S
Mn6 O11 2.251 . S
Mn6 O12 2.087 . S
O7 Mn1 2.193 . S
O7 C17 1.244 . S
O8 Mn6 2.089 1_565 S
O8 C15 1.256 . S
O9 Mn1 2.130 1_556 S
O9 C18 1.239 . S
O10 Mn3 2.089 . S
O10 C18 1.256 1_655 S
O11 Mn6 2.251 . S
O11 C16 1.241 . S
O12 Mn6 2.087 . S
O12 C17 1.256 . S
C13 O19 1.278 1_554 S
C13 O20 1.241 1_554 S
C14 O0 1.244 1_556 S
C14 O2 1.256 . S
C15 O4 1.239 1_554 S
C15 O8 1.256 . S
C16 O5 1.278 . S
C16 O11 1.241 . S
C17 O7 1.244 . S
C17 O12 1.256 . S
C18 O9 1.239 . S
C18 O10 1.256 1_455 S
O19 Mn1 2.217 1_666 S
O19 Mn3 2.290 1_565 S
O19 C13 1.278 1_556 S
O20 Mn3 2.251 1_565 S
O20 C13 1.241 1_556 S
O21 Mn22 2.163 . S
O21 C35 1.244 . S
Mn22 O21 2.163 . S
Mn22 O25 2.160 . S
Mn22 O26 2.221 . S
Mn22 O28 2.163 . S
Mn22 O30 2.160 . S
Mn22 O40 2.221 . S
O23 Mn24 2.087 . S
O23 C35 1.256 . S
Mn24 O23 2.087 . S
Mn24 O31 2.089 . S
Mn24 O40 2.290 . S
Mn24 O41 2.251 . S
O25 Mn22 2.160 . S
O25 C36 1.239 . S
O26 Mn22 2.221 . S
O26 Mn27 2.290 . S
O26 C37 1.278 . S
Mn27 O26 2.290 . S
Mn27 O29 2.089 . S
Mn27 O32 2.251 . S
Mn27 O33 2.087 . S
O28 Mn22 2.163 . S
O28 C38 1.244 . S
O29 Mn27 2.089 . S
O29 C36 1.256 . S
O30 Mn22 2.160 . S
O30 C39 1.239 . S
O31 Mn24 2.089 . S
O31 C39 1.256 . S
O32 Mn27 2.251 . S
O32 C37 1.241 . S
O33 Mn27 2.087 . S
O33 C38 1.256 . S
C34 O40 1.278 . S
C34 O41 1.241 . S
C35 O21 1.244 . S
C35 O23 1.256 . S
C36 O25 1.239 . S
C36 O29 1.256 . S
C37 O26 1.278 . S
C37 O32 1.241 . S
C38 O28 1.244 . S
C38 O33 1.256 . S
C39 O30 1.239 . S
C39 O31 1.256 . S
O40 Mn22 2.221 . S
O40 Mn24 2.290 . S
O40 C34 1.278 . S
O41 Mn24 2.251 . S
O41 C34 1.241 . S
C42 C43 1.264 . S
C42 C47 1.479 . S
C42 C52 1.465 . S
C43 C42 1.264 . S
C43 C45 1.339 . S
C43 H70 0.931 . S
C44 C45 1.395 . S
C44 C46 1.320 . S
C45 C43 1.339 . S
C45 C44 1.395 . S
C45 H71 0.929 . S
C46 C44 1.320 . S
C46 C47 1.405 . S
C46 H72 0.930 . S
C47 C42 1.479 . S
C47 C46 1.405 . S
C47 H73 0.931 . S
U48 O49 2.454 1_545 S
U48 O50 2.458 1_545 S
U48 C51 2.984 1_545 S
U48 C52 2.847 1_455 S
U48 C65 2.882 . S
U48 O66 2.441 . S
U48 O67 2.420 . S
U48 O68 2.455 1_545 S
U48 O69 2.449 . S
O49 U48 2.454 1_565 S
O49 C51 1.353 . S
O50 U48 2.458 1_565 S
O50 C51 1.286 . S
C51 U48 2.984 1_565 S
C51 O49 1.353 . S
C51 O50 1.286 . S
C51 C53 1.363 . S
C52 C42 1.465 . S
C52 U48 2.847 1_655 S
C52 O66 1.249 1_655 S
C52 O67 1.202 1_655 S
C53 C51 1.363 . S
C53 C55 1.408 . S
C53 C58 1.342 . S
C54 C55 1.310 . S
C54 C57 1.461 . S
C54 H74 0.932 . S
C55 C53 1.408 . S
C55 C54 1.310 . S
C55 H75 0.930 . S
C56 C57 1.474 . S
C56 C58 1.285 . S
C56 H76 0.929 . S
C57 C54 1.461 . S
C57 C56 1.474 . S
C58 C53 1.342 . S
C58 C56 1.285 . S
C58 H77 0.930 . S
C59 C62 1.424 . S
C59 C64 1.245 1_545 S
C59 C65 1.428 . S
C60 C63 1.253 1_565 S
C60 C64 1.477 . S
C60 H78 0.932 . S
C61 C62 1.384 . S
C61 C63 1.487 . S
C61 H79 0.929 . S
C62 C59 1.424 . S
C62 C61 1.384 . S
C62 H80 0.928 . S
C63 C60 1.253 1_545 S
C63 C61 1.487 . S
C64 C59 1.245 1_565 S
C64 C60 1.477 . S
C64 H81 0.932 . S
C65 U48 2.882 . S
C65 C59 1.428 . S
C65 O68 1.301 1_545 S
C65 O69 1.282 . S
O66 U48 2.441 . S
O66 C52 1.249 1_455 S
O67 U48 2.420 . S
O67 C52 1.202 1_455 S
O68 U48 2.455 1_565 S
O68 C65 1.301 1_565 S
O69 U48 2.449 . S
O69 C65 1.282 . S
H70 C43 0.931 . S
H71 C45 0.929 . S
H72 C46 0.930 . S
H73 C47 0.931 . S
H74 C54 0.932 . S
H75 C55 0.930 . S
H76 C56 0.929 . S
H77 C58 0.930 . S
H78 C60 0.932 . S
H79 C61 0.929 . S
H80 C62 0.928 . S
H81 C64 0.932 . S
C82 C83 1.264 . S
C82 C87 1.479 . S
C82 C92 1.465 . S
C83 C82 1.264 . S
C83 C85 1.339 . S
C83 H110 0.931 . S
C84 C85 1.395 . S
C84 C86 1.320 . S
C85 C83 1.339 . S
C85 C84 1.395 . S
C85 H111 0.929 . S
C86 C84 1.320 . S
C86 C87 1.405 . S
C86 H112 0.930 . S
C87 C82 1.479 . S
C87 C86 1.405 . S
C87 H113 0.931 . S
U88 O89 2.454 . S
U88 O90 2.458 . S
U88 C91 2.984 . S
U88 C92 2.847 1_445 S
U88 C105 2.882 . S
U88 O106 2.441 1_455 S
U88 O107 2.420 1_445 S
U88 O108 2.455 . S
U88 O109 2.449 . S
O89 U88 2.454 . S
O89 C91 1.353 . S
O90 U88 2.458 . S
O90 C91 1.286 . S
C91 U88 2.984 . S
C91 O89 1.353 . S
C91 O90 1.286 . S
C91 C93 1.363 . S
C92 C82 1.465 . S
C92 U88 2.847 1_665 S
C92 O106 1.249 1_565 S
C92 O107 1.202 . S
C93 C91 1.363 . S
C93 C95 1.408 . S
C93 C98 1.342 . S
C94 C95 1.310 . S
C94 C97 1.461 . S
C94 H114 0.932 . S
C95 C93 1.408 . S
C95 C94 1.310 . S
C95 H115 0.930 . S
C96 C97 1.474 . S
C96 C98 1.285 . S
C96 H116 0.929 . S
C97 C94 1.461 . S
C97 C96 1.474 . S
C98 C93 1.342 . S
C98 C96 1.285 . S
C98 H117 0.930 . S
C99 C102 1.424 1_455 S
C99 C104 1.245 . S
C99 C105 1.428 . S
C100 C103 1.260 . S
C100 C104 1.477 . S
C100 H118 0.932 . S
C101 C102 1.384 . S
C101 C103 1.479 1_655 S
C101 H119 0.929 . S
C102 C99 1.424 1_655 S
C102 C101 1.384 . S
C102 H120 0.928 . S
C103 C100 1.260 . S
C103 C101 1.479 1_455 S
C104 C99 1.245 . S
C104 C100 1.477 . S
C104 H121 0.932 . S
C105 U88 2.882 . S
C105 C99 1.428 . S
C105 O108 1.301 . S
C105 O109 1.282 . S
O106 U88 2.441 1_655 S
O106 C92 1.249 1_545 S
O107 U88 2.420 1_665 S
O107 C92 1.202 . S
O108 U88 2.455 . S
O108 C105 1.301 . S
O109 U88 2.449 . S
O109 C105 1.282 . S
H110 C83 0.931 . S
H111 C85 0.929 . S
H112 C86 0.930 . S
H113 C87 0.931 . S
H114 C94 0.932 . S
H115 C95 0.930 . S
H116 C96 0.929 . S
H117 C98 0.930 . S
H118 C100 0.932 . S
H119 C101 0.929 . S
H120 C102 0.928 . S
H121 C104 0.932 . S
C122 C123 1.264 . S
C122 C127 1.479 1_556 S
C122 C132 1.465 . S
C123 C122 1.264 . S
C123 C125 1.339 . S
C123 H150 0.931 . S
C124 C125 1.395 1_554 S
C124 C126 1.320 . S
C125 C123 1.339 . S
C125 C124 1.395 1_556 S
C125 H151 0.929 . S
C126 C124 1.320 . S
C126 C127 1.405 . S
C126 H152 0.930 . S
C127 C122 1.479 1_554 S
C127 C126 1.405 . S
C127 H153 0.931 . S
U128 O129 2.454 . S
U128 O130 2.458 . S
U128 C131 2.984 . S
U128 C132 2.847 . S
U128 C145 2.882 . S
U128 O146 2.441 . S
U128 O147 2.420 . S
U128 O148 2.455 . S
U128 O149 2.449 . S
O129 U128 2.454 . S
O129 C131 1.353 . S
O130 U128 2.458 . S
O130 C131 1.286 . S
C131 U128 2.984 . S
C131 O129 1.353 . S
C131 O130 1.286 . S
C131 C133 1.363 . S
C132 C122 1.465 . S
C132 U128 2.847 . S
C132 O146 1.249 . S
C132 O147 1.202 . S
C133 C131 1.363 . S
C133 C135 1.408 1_556 S
C133 C138 1.342 . S
C134 C135 1.310 . S
C134 C137 1.461 1_554 S
C134 H154 0.932 . S
C135 C133 1.408 1_554 S
C135 C134 1.310 . S
C135 H155 0.930 . S
C136 C137 1.474 . S
C136 C138 1.285 . S
C136 H156 0.929 . S
C137 C134 1.461 1_556 S
C137 C136 1.474 . S
C138 C133 1.342 . S
C138 C136 1.285 . S
C138 H157 0.930 . S
C139 C142 1.424 . S
C139 C144 1.245 . S
C139 C145 1.428 . S
C140 C143 1.260 . S
C140 C144 1.477 . S
C140 H158 0.932 . S
C141 C142 1.384 . S
C141 C143 1.479 . S
C141 H159 0.929 . S
C142 C139 1.424 . S
C142 C141 1.384 . S
C142 H160 0.928 . S
C143 C140 1.260 . S
C143 C141 1.479 . S
C144 C139 1.245 . S
C144 C140 1.477 . S
C144 H161 0.932 . S
C145 U128 2.882 . S
C145 C139 1.428 . S
C145 O148 1.301 . S
C145 O149 1.282 . S
O146 U128 2.441 . S
O146 C132 1.249 . S
O147 U128 2.420 . S
O147 C132 1.202 . S
O148 U128 2.455 . S
O148 C145 1.301 . S
O149 U128 2.449 . S
O149 C145 1.282 . S
H150 C123 0.931 . S
H151 C125 0.929 . S
H152 C126 0.930 . S
H153 C127 0.931 . S
H154 C134 0.932 . S
H155 C135 0.930 . S
H156 C136 0.929 . S
H157 C138 0.930 . S
H158 C140 0.932 . S
H159 C141 0.929 . S
H160 C142 0.928 . S
H161 C144 0.932 . S
C162 C163 1.264 . S
C162 C167 1.479 . S
C162 C172 1.465 . S
C163 C162 1.264 . S
C163 C165 1.339 . S
C163 H190 0.931 . S
C164 C165 1.395 . S
C164 C166 1.320 1_554 S
C165 C163 1.339 . S
C165 C164 1.395 . S
C165 H191 0.929 . S
C166 C164 1.320 1_556 S
C166 C167 1.405 1_556 S
C166 H192 0.930 . S
C167 C162 1.479 . S
C167 C166 1.405 1_554 S
C167 H193 0.931 1_554 S
U168 O169 2.454 . S
U168 O170 2.458 . S
U168 C171 2.984 . S
U168 C172 2.847 . S
U168 C185 2.882 . S
U168 O186 2.441 . S
U168 O187 2.420 . S
U168 O188 2.455 . S
U168 O189 2.449 . S
O169 U168 2.454 . S
O169 C171 1.353 . S
O170 U168 2.458 . S
O170 C171 1.286 . S
C171 U168 2.984 . S
C171 O169 1.353 . S
C171 O170 1.286 . S
C171 C173 1.363 . S
C172 C162 1.465 . S
C172 U168 2.847 . S
C172 O186 1.249 . S
C172 O187 1.202 . S
C173 C171 1.363 . S
C173 C175 1.408 . S
C173 C178 1.342 . S
C174 C175 1.310 1_556 S
C174 C177 1.461 1_556 S
C174 H194 0.932 . S
C175 C173 1.408 . S
C175 C174 1.310 1_554 S
C175 H195 0.930 1_554 S
C176 C177 1.474 . S
C176 C178 1.285 . S
C176 H196 0.929 . S
C177 C174 1.461 1_554 S
C177 C176 1.474 . S
C178 C173 1.342 . S
C178 C176 1.285 . S
C178 H197 0.930 . S
C179 C182 1.424 . S
C179 C184 1.245 . S
C179 C185 1.428 . S
C180 C183 1.260 . S
C180 C184 1.477 . S
C180 H198 0.932 . S
C181 C182 1.384 . S
C181 C183 1.479 . S
C181 H199 0.929 . S
C182 C179 1.424 . S
C182 C181 1.384 . S
C182 H200 0.928 . S
C183 C180 1.260 . S
C183 C181 1.479 . S
C184 C179 1.245 . S
C184 C180 1.477 . S
C184 H201 0.932 . S
C185 U168 2.882 . S
C185 C179 1.428 . S
C185 O188 1.301 . S
C185 O189 1.282 . S
O186 U168 2.441 . S
O186 C172 1.249 . S
O187 U168 2.420 . S
O187 C172 1.202 . S
O188 U168 2.455 . S
O188 C185 1.301 . S
O189 U168 2.449 . S
O189 C185 1.282 . S
H190 C163 0.931 . S
H191 C165 0.929 . S
H192 C166 0.930 . S
H193 C167 0.931 1_556 S
H194 C174 0.932 . S
H195 C175 0.930 1_556 S
H196 C176 0.929 . S
H197 C178 0.930 . S
H198 C180 0.932 . S
H199 C181 0.929 . S
H200 C182 0.928 . S
H201 C184 0.932 . S
C202 C203 1.170 . S
C202 C204 1.376 1_554 S
C203 C202 1.170 . S
C204 C202 1.376 1_556 S
C204 C205 1.173 . S
C205 C204 1.173 . S
C206 C207 1.170 . S
C206 C208 1.380 . S
C207 C206 1.170 . S
C208 C206 1.380 . S
C208 C209 1.170 . S
C209 C208 1.170 . S
C210 C211 1.170 . S
C210 C212 1.380 . S
C211 C210 1.170 . S
C212 C210 1.380 . S
C212 C213 1.170 . S
C213 C212 1.170 . S
C214 C215 1.170 . S
C214 C216 1.380 . S
C215 C214 1.170 . S
C216 C214 1.380 . S
C216 C217 1.170 . S
C217 C216 1.170 . S
C218 C219 1.170 . S
C218 C220 1.380 . S
C219 C218 1.170 . S
C220 C218 1.380 . S
C220 C221 1.170 . S
C221 C220 1.170 . S
C222 C223 1.170 . S
C222 C224 1.380 . S
C223 C222 1.170 . S
C224 C222 1.380 . S
C224 C225 1.170 . S
C225 C224 1.170 . S
C226 C227 1.170 . S
C226 C228 1.380 . S
C227 C226 1.170 . S
C228 C226 1.380 . S
C228 C229 1.170 . S
C229 C228 1.170 . S
C230 C231 1.170 . S
C230 C232 1.380 . S
C231 C230 1.170 . S
C232 C230 1.380 . S
C232 C233 1.170 . S
C233 C232 1.170 . S
C234 C235 1.170 . S
C234 C236 1.382 . S
C235 C234 1.170 . S
C236 C234 1.382 . S
C236 C237 1.168 1_545 S
C237 C236 1.168 1_565 S
C238 C239 1.170 . S
C238 C240 1.380 . S
C239 C238 1.170 . S
C240 C238 1.380 . S
C240 C241 1.170 . S
C241 C240 1.170 . S
C242 C243 1.170 . S
C242 C244 1.380 . S
C243 C242 1.170 . S
C244 C242 1.380 . S
C244 C245 1.170 . S
C245 C244 1.170 . S
C246 C247 1.170 . S
C246 C248 1.380 . S
C247 C246 1.170 . S
C248 C246 1.380 . S
C248 C249 1.170 . S
C249 C248 1.170 . S
C205 C164 1.590 1_556 S
C203 C16 1.570 . S
C207 C15 1.642 . S
C209 C124 1.614 . S
C211 C13 1.366 . S
C213 C177 1.559 . S
C215 C14 1.464 1_554 S
C217 C137 1.471 1_554 S
C219 C37 1.563 . S
C221 C84 1.584 . S
C223 C36 1.659 . S
C225 C44 1.646 . S
C229 C97 1.541 . S
C227 C34 1.363 . S
C233 C57 1.451 . S
C231 C35 1.455 . S
C235 C17 1.539 . S
C237 C63 1.548 1_565 S
C239 C18 1.390 . S
C241 C103 1.436 . S
C245 C143 1.531 . S
C243 C38 1.508 . S
C247 C39 1.384 . S
C249 C183 1.427 . S
