# Generated by pormake.
# Topology anh, (6,3)-cn, num edge types: 1
# Building blocks:
#     Node 0, Type 0, BuildingBlock: PAMTOO_clean_sbu_0, # of connection points: 6
#     Node 1, Type 0, BuildingBlock: PAMTOO_clean_sbu_0, # of connection points: 6
#     Node 2, Type 0, BuildingBlock: PAMTOO_clean_sbu_0, # of connection points: 6
#     Node 3, Type 1, BuildingBlock: OLANEW_clean_sbu_2, # of connection points: 3
#     Node 4, Type 1, BuildingBlock: OLANEW_clean_sbu_2, # of connection points: 3
#     Node 5, Type 1, BuildingBlock: OLANEW_clean_sbu_2, # of connection points: 3
#     Node 6, Type 1, BuildingBlock: OLANEW_clean_sbu_2, # of connection points: 3
#     Node 7, Type 1, BuildingBlock: OLANEW_clean_sbu_2, # of connection points: 3
#     Node 8, Type 1, BuildingBlock: OLANEW_clean_sbu_2, # of connection points: 3
#     Edge 9, Type (0, 1), None
#     Edge 10, Type (0, 1), None
#     Edge 11, Type (0, 1), None
#     Edge 12, Type (0, 1), None
#     Edge 13, Type (0, 1), None
#     Edge 14, Type (0, 1), None
#     Edge 15, Type (0, 1), None
#     Edge 16, Type (0, 1), None
#     Edge 17, Type (0, 1), None
#     Edge 18, Type (0, 1), None
#     Edge 19, Type (0, 1), None
#     Edge 20, Type (0, 1), None
#     Edge 21, Type (0, 1), None
#     Edge 22, Type (0, 1), None
#     Edge 23, Type (0, 1), None
#     Edge 24, Type (0, 1), None
#     Edge 25, Type (0, 1), None
#     Edge 26, Type (0, 1), None
# Relax obj value: 0.357
# Max RMSD: 0.235
# Mean RMSD: 0.151
data_MOF--net-anh--node1-PAMTOO_clean_sbu_0--node2-OLANEW_clean_sbu_2--edge1-none
_symmetry_space_group_name_H-M    P1
_symmetry_Int_Tables_number       1
_symmetry_cell_setting            triclinic
loop_
_symmetry_equiv_pos_as_xyz
'x, y, z'
_cell_length_a     20.525985
_cell_length_b     17.203973
_cell_length_c     23.551072
_cell_angle_alpha  91.955997
_cell_angle_beta   95.02828
_cell_angle_gamma 98.5709
loop_
_atom_site_label
_atom_site_type_symbol
_atom_site_fract_x
_atom_site_fract_y
_atom_site_fract_z
_atom_type_partial_charge
Dy0 Dy 0.07505 0.59007 0.0811 0.0
Dy1 Dy 1.02051 0.39819 0.06088 0.0
C2 C 1.02078 0.51119 0.9565 0.0
O3 O 0.96754 0.57735 0.09886 0.0
O4 O 0.92821 0.45292 0.05918 0.0
O5 O 0.11805 0.70032 0.04968 0.0
O6 O 0.09055 0.69568 0.13639 0.0
O7 O 1.01471 0.43728 0.15101 0.0
O8 O 0.10568 0.53089 0.15973 0.0
O9 O 0.13209 0.40842 0.06023 0.0
O10 O 0.16486 0.54246 0.05557 0.0
O11 O 0.02331 0.28362 0.09555 0.0
O12 O 0.9561 0.29597 0.02151 0.0
C13 C 0.91839 0.5205 0.08188 0.0
O14 O 0.02457 0.57146 -0.00702 0.0
O15 O 0.02796 0.4402 0.97248 0.0
C16 C 0.18585 0.78361 0.11972 0.0
C17 C 0.30894 0.86976 0.16309 0.0
C18 C 0.30611 0.79993 0.12954 0.0
C19 C 0.24507 0.75698 0.10832 0.0
C20 C 0.1885 0.85386 0.15227 0.0
C21 C 0.24948 0.89652 0.1739 0.0
C22 C 0.12119 0.738 0.09905 0.0
C23 C 0.06389 0.47894 0.18253 0.0
C24 C 0.1779 0.46981 0.05459 0.0
C25 C 0.91502 0.21423 0.0932 0.0
C26 C 0.80916 0.14633 0.15409 0.0
C27 C 0.81723 0.22668 0.14254 0.0
C28 C 0.86967 0.26023 0.11276 0.0
C29 C 0.90773 0.13419 0.10505 0.0
C30 C 0.85533 0.10051 0.13527 0.0
C31 C 0.97106 0.25112 0.06285 0.0
H32 H 0.35094 0.77745 0.12076 0.0
H33 H 0.24417 0.70253 0.08354 0.0
H34 H 0.14333 0.87524 0.16155 0.0
H35 H 0.24993 0.95003 0.19962 0.0
H36 H 0.7829 0.26387 0.15642 0.0
H37 H 0.87475 0.32238 0.10502 0.0
H38 H 0.94252 0.09776 0.09096 0.0
H39 H 0.85057 0.0384 0.14329 0.0
Dy40 Dy 0.46788 0.00234 0.51313 0.0
Dy41 Dy 0.63021 0.05819 0.54424 0.0
C42 C 0.53418 0.02011 0.64277 0.0
O43 O 0.484 0.13108 0.50114 0.0
O44 O 0.58277 0.16617 0.55642 0.0
O45 O 0.37222 0.95867 0.54032 0.0
O46 O 0.38089 -0.01024 0.45276 0.0
O47 O 0.60817 0.07052 0.45052 0.0
O48 O 0.5183 0.9739 0.43654 0.0
O49 O 0.61746 0.92598 0.53683 0.0
O50 O 0.50376 0.88909 0.52931 0.0
O51 O 0.73013 0.03731 0.53668 0.0
O52 O 0.71323 0.14436 0.5797 0.0
C53 C 0.52879 0.1841 0.52911 0.0
O54 O 0.48412 0.03162 0.60701 0.0
O55 O 0.59384 0.01856 0.62694 0.0
C56 C 0.30425 0.87937 0.46994 0.0
C57 C 0.23153 0.72998 0.43886 0.0
C58 C 0.30107 0.74145 0.44306 0.0
C59 C 0.3371 0.81557 0.45843 0.0
C60 C 0.23502 0.86851 0.46586 0.0
C61 C 0.1988 0.79428 0.45028 0.0
C62 C 0.34249 0.95594 0.48896 0.0
C63 C 0.56775 0.01917 0.41694 0.0
C64 C 0.56416 0.87227 0.53405 0.0
C65 C 0.79919 0.15364 0.51897 0.0
C66 C 0.87901 0.24283 0.44547 0.0
C67 C 0.82137 0.19248 0.42351 0.0
C68 C 0.78189 0.14864 0.45982 0.0
C69 C 0.85664 0.2037 0.54133 0.0
C70 C 0.89636 0.24808 0.50482 0.0
C71 C 0.75626 0.10763 0.55671 0.0
H72 H 0.32778 0.69328 0.43432 0.0
H73 H 0.39066 0.82302 0.46167 0.0
H74 H 0.20907 0.91723 0.47505 0.0
H75 H 0.14527 0.78732 0.44724 0.0
H76 H 0.80638 0.18696 0.37811 0.0
H77 H 0.73768 0.11068 0.44148 0.0
H78 H 0.87063 0.20862 0.58689 0.0
H79 H 0.94045 0.28643 0.52304 0.0
Dy80 Dy 0.59552 0.57214 0.83707 0.0
Dy81 Dy 0.44885 0.47569 0.85286 0.0
C82 C 0.49204 0.51926 0.72901 0.0
O83 O 0.53292 0.65576 0.86944 0.0
O84 O 0.43348 0.59634 0.8257 0.0
O85 O 0.70028 0.57596 0.83414 0.0
O86 O 0.65541 0.68054 0.81714 0.0
O87 O 0.48899 0.5241 0.94014 0.0
O88 O 0.59975 0.53856 0.92778 0.0
O89 O 0.52708 0.40003 0.86928 0.0
O90 O 0.59086 0.44885 0.80155 0.0
O91 O 0.35728 0.46073 0.89288 0.0
O92 O 0.38357 0.36465 0.84079 0.0
C93 C 0.47418 0.66046 0.84433 0.0
O94 O 0.53738 0.57467 0.75363 0.0
O95 O 0.45711 0.46682 0.75818 0.0
C96 C 0.76719 0.69913 0.8559 0.0
C97 C 0.89304 0.76854 0.90453 0.0
C98 C 0.86701 0.79292 0.85202 0.0
C99 C 0.80463 0.75803 0.82777 0.0
C100 C 0.7895 0.6813 0.91126 0.0
C101 C 0.85204 0.71602 0.93555 0.0
C102 C 0.71013 0.65067 0.82382 0.0
C103 C 0.551 0.53235 0.96084 0.0
C104 C 0.56675 0.38923 0.83028 0.0
C105 C 0.27345 0.3507 0.86794 0.0
C106 C 0.13753 0.29513 0.86278 0.0
C107 C 0.16637 0.32243 0.8136 0.0
C108 C 0.23418 0.35056 0.81627 0.0
C109 C 0.24582 0.31798 0.91561 0.0
C110 C 0.17837 0.2903 0.91313 0.0
C111 C 0.3427 0.38692 0.8752 0.0
H112 H 0.8969 0.83393 0.82734 0.0
H113 H 0.78765 0.77312 0.78525 0.0
H114 H 0.76067 0.63674 0.93405 0.0
H115 H 0.87024 0.69659 0.97642 0.0
H116 H 0.136 0.32745 0.7743 0.0
H117 H 0.25525 0.37517 0.77901 0.0
H118 H 0.276 0.31702 0.95566 0.0
H119 H 0.15764 0.26977 0.95167 0.0
O120 O 0.62476 0.05066 0.33382 0.0
Cd121 Cd 0.63579 0.03928 0.22966 0.0
O122 O 0.5297 0.96978 0.32377 0.0
Cd123 Cd 0.51474 0.94713 0.23176 0.0
O124 O 0.42745 0.8916 0.17749 0.0
C125 C 0.37306 0.91211 0.18954 0.0
O126 O 0.37432 0.9675 0.22963 0.0
C127 C 0.57515 0.01308 0.35537 0.0
C128 C 0.75134 0.11034 0.18335 0.0
O129 O 0.70431 0.14914 0.19271 0.0
O130 O 0.74538 0.03874 0.19809 0.0
O131 O 0.46677 0.44913 0.63927 0.0
Cd132 Cd 0.48853 0.42033 0.54099 0.0
O133 O 0.51133 0.57504 0.64179 0.0
Cd134 Cd 0.52145 0.61408 0.55547 0.0
O135 O 0.52105 0.73611 0.531 0.0
C136 C 0.57175 0.7891 0.53936 0.0
O137 O 0.62897 0.76999 0.55854 0.0
C138 C 0.48663 0.51451 0.66661 0.0
C139 C 0.516 0.26591 0.53188 0.0
O140 O 0.56154 0.32248 0.55041 0.0
O141 O 0.45823 0.28216 0.51681 0.0
O142 O 0.97856 0.47296 0.85986 0.0
Cd143 Cd 0.94375 0.33366 0.8728 0.0
O144 O 0.02775 0.59416 0.87823 0.0
Cd145 Cd 0.07386 0.69328 0.93631 0.0
O146 O 0.98917 0.74415 0.95921 0.0
C147 C 0.96535 0.78314 0.91987 0.0
O148 O 1.00422 0.81027 0.88122 0.0
C149 C 1.00857 0.52612 0.89568 0.0
C150 C 0.06561 0.28926 0.86541 0.0
O151 O 0.04256 0.29627 0.91387 0.0
O152 O 0.02707 0.29282 0.82004 0.0
O153 O 0.1149 0.51167 0.27627 0.0
Cd154 Cd 0.12384 0.50764 0.37963 0.0
O155 O 0.02543 0.42231 0.26566 0.0
Cd156 Cd 1.01991 0.39856 0.35585 0.0
O157 O 0.97109 0.33745 0.42416 0.0
C158 C 0.9198 0.28929 0.40597 0.0
O159 O 0.90288 0.28173 0.35069 0.0
C160 C 0.06875 0.47037 0.24432 0.0
C161 C 0.19366 0.65186 0.42092 0.0
O162 O 0.2235 0.59325 0.41074 0.0
O163 O 0.1303 0.64136 0.41346 0.0
O164 O 0.48345 0.93254 0.70682 0.0
Cd165 Cd 0.43966 0.88989 0.79765 0.0
O166 O 0.5381 0.04531 0.74352 0.0
Cd167 Cd 0.58825 0.1671 0.74232 0.0
O168 O 0.59848 0.29284 0.76737 0.0
C169 C 0.57527 0.30847 0.81402 0.0
O170 O 0.55014 0.2502 0.84393 0.0
C171 C 0.51975 -0.00203 0.70053 0.0
C172 C 0.4594 0.73905 0.83019 0.0
O173 O 0.40703 0.74807 0.79889 0.0
O174 O 0.50193 0.80023 0.84527 0.0
O175 O 0.6291 0.53694 0.04006 0.0
Cd176 Cd 0.71803 0.53887 0.1201 0.0
O177 O 0.52259 0.52188 0.0575 0.0
Cd178 Cd 0.40927 0.50814 0.0422 0.0
O179 O 0.29527 0.51281 0.04459 0.0
C180 C 0.24741 0.45605 0.04883 0.0
O181 O 0.29427 0.51529 0.04448 0.0
C182 C 0.56758 0.5312 0.0226 0.0
C183 C 0.84942 0.52904 0.0923 0.0
O184 O 0.80453 0.4684 0.09033 0.0
O185 O 0.83286 0.59571 0.10576 0.0
loop_
_geom_bond_atom_site_label_1
_geom_bond_atom_site_label_2
_geom_bond_distance
_geom_bond_site_symmetry_2
_ccdc_geom_bond_type
Dy0 O3 2.307 1_455 S
Dy0 O5 2.395 . S
Dy0 O6 2.379 . S
Dy0 O8 2.339 . S
Dy0 O10 2.298 . S
Dy0 O14 2.275 . S
Dy0 C22 2.738 . S
Dy1 O4 2.298 . S
Dy1 O7 2.275 1_655 S
Dy1 O9 2.307 1_655 S
Dy1 O11 2.395 . S
Dy1 O12 2.379 . S
Dy1 O15 2.339 . S
Dy1 C31 2.738 . S
C2 O14 1.254 . S
C2 O15 1.257 1_455 S
O3 Dy0 2.307 1_655 S
O3 C13 1.266 . S
O4 Dy1 2.298 . S
O4 C13 1.236 . S
O5 Dy0 2.395 . S
O5 C22 1.255 . S
O6 Dy0 2.379 . S
O6 C22 1.249 . S
O7 Dy1 2.275 1_455 S
O7 C23 1.254 . S
O8 Dy0 2.339 . S
O8 C23 1.257 . S
O9 Dy1 2.307 1_455 S
O9 C24 1.266 . S
O10 Dy0 2.298 . S
O10 C24 1.236 . S
O11 Dy1 2.395 . S
O11 C31 1.255 . S
O12 Dy1 2.379 . S
O12 C31 1.249 . S
C13 O3 1.266 . S
C13 O4 1.236 . S
O14 Dy0 2.275 . S
O14 C2 1.254 . S
O15 Dy1 2.339 . S
O15 C2 1.257 1_655 S
C16 C19 1.344 . S
C16 C20 1.328 . S
C16 C22 1.516 . S
C17 C18 1.304 . S
C17 C21 1.323 . S
C18 C17 1.304 . S
C18 C19 1.371 . S
C18 H32 0.930 . S
C19 C16 1.344 . S
C19 C18 1.371 . S
C19 H33 0.931 . S
C20 C16 1.328 . S
C20 C21 1.433 . S
C20 H34 0.931 . S
C21 C17 1.323 . S
C21 C20 1.433 . S
C21 H35 0.933 . S
C22 Dy0 2.738 . S
C22 O5 1.255 . S
C22 O6 1.249 . S
C22 C16 1.516 . S
C23 O7 1.254 . S
C23 O8 1.257 . S
C24 O9 1.266 . S
C24 O10 1.236 . S
C25 C28 1.344 . S
C25 C29 1.328 . S
C25 C31 1.516 . S
C26 C27 1.304 . S
C26 C30 1.323 . S
C27 C26 1.304 . S
C27 C28 1.371 . S
C27 H36 0.930 . S
C28 C25 1.344 . S
C28 C27 1.371 . S
C28 H37 0.931 . S
C29 C25 1.328 . S
C29 C30 1.433 . S
C29 H38 0.931 . S
C30 C26 1.323 . S
C30 C29 1.433 . S
C30 H39 0.933 . S
C31 Dy1 2.738 . S
C31 O11 1.255 . S
C31 O12 1.249 . S
C31 C25 1.516 . S
H32 C18 0.930 . S
H33 C19 0.931 . S
H34 C20 0.931 . S
H35 C21 0.933 . S
H36 C27 0.930 . S
H37 C28 0.931 . S
H38 C29 0.931 . S
H39 C30 0.933 . S
Dy40 O43 2.307 1_565 S
Dy40 O45 2.395 . S
Dy40 O46 2.379 . S
Dy40 O48 2.339 . S
Dy40 O50 2.298 . S
Dy40 O54 2.275 1_565 S
Dy40 C62 2.738 . S
Dy41 O44 2.298 . S
Dy41 O47 2.275 . S
Dy41 O49 2.307 1_545 S
Dy41 O51 2.395 . S
Dy41 O52 2.379 . S
Dy41 O55 2.339 . S
Dy41 C71 2.738 . S
C42 O54 1.254 . S
C42 O55 1.257 . S
O43 Dy40 2.307 1_545 S
O43 C53 1.266 . S
O44 Dy41 2.298 . S
O44 C53 1.236 . S
O45 Dy40 2.395 . S
O45 C62 1.255 . S
O46 Dy40 2.379 . S
O46 C62 1.249 . S
O47 Dy41 2.275 . S
O47 C63 1.254 . S
O48 Dy40 2.339 . S
O48 C63 1.257 1_565 S
O49 Dy41 2.307 1_565 S
O49 C64 1.266 . S
O50 Dy40 2.298 . S
O50 C64 1.236 . S
O51 Dy41 2.395 . S
O51 C71 1.255 . S
O52 Dy41 2.379 . S
O52 C71 1.249 . S
C53 O43 1.266 . S
C53 O44 1.236 . S
O54 Dy40 2.275 1_545 S
O54 C42 1.254 . S
O55 Dy41 2.339 . S
O55 C42 1.257 . S
C56 C59 1.344 . S
C56 C60 1.328 . S
C56 C62 1.516 . S
C57 C58 1.304 . S
C57 C61 1.323 . S
C58 C57 1.304 . S
C58 C59 1.371 . S
C58 H72 0.930 . S
C59 C56 1.344 . S
C59 C58 1.371 . S
C59 H73 0.931 . S
C60 C56 1.328 . S
C60 C61 1.433 . S
C60 H74 0.931 . S
C61 C57 1.323 . S
C61 C60 1.433 . S
C61 H75 0.933 . S
C62 Dy40 2.738 . S
C62 O45 1.255 . S
C62 O46 1.249 . S
C62 C56 1.516 . S
C63 O47 1.254 . S
C63 O48 1.257 1_545 S
C64 O49 1.266 . S
C64 O50 1.236 . S
C65 C68 1.344 . S
C65 C69 1.328 . S
C65 C71 1.516 . S
C66 C67 1.304 . S
C66 C70 1.323 . S
C67 C66 1.304 . S
C67 C68 1.371 . S
C67 H76 0.930 . S
C68 C65 1.344 . S
C68 C67 1.371 . S
C68 H77 0.931 . S
C69 C65 1.328 . S
C69 C70 1.433 . S
C69 H78 0.931 . S
C70 C66 1.323 . S
C70 C69 1.433 . S
C70 H79 0.933 . S
C71 Dy41 2.738 . S
C71 O51 1.255 . S
C71 O52 1.249 . S
C71 C65 1.516 . S
H72 C58 0.930 . S
H73 C59 0.931 . S
H74 C60 0.931 . S
H75 C61 0.933 . S
H76 C67 0.930 . S
H77 C68 0.931 . S
H78 C69 0.931 . S
H79 C70 0.933 . S
Dy80 O83 2.307 . S
Dy80 O85 2.395 . S
Dy80 O86 2.379 . S
Dy80 O88 2.339 . S
Dy80 O90 2.298 . S
Dy80 O94 2.275 . S
Dy80 C102 2.738 . S
Dy81 O84 2.298 . S
Dy81 O87 2.275 . S
Dy81 O89 2.307 . S
Dy81 O91 2.395 . S
Dy81 O92 2.379 . S
Dy81 O95 2.339 . S
Dy81 C111 2.738 . S
C82 O94 1.254 . S
C82 O95 1.257 . S
O83 Dy80 2.307 . S
O83 C93 1.266 . S
O84 Dy81 2.298 . S
O84 C93 1.236 . S
O85 Dy80 2.395 . S
O85 C102 1.255 . S
O86 Dy80 2.379 . S
O86 C102 1.249 . S
O87 Dy81 2.275 . S
O87 C103 1.254 . S
O88 Dy80 2.339 . S
O88 C103 1.257 . S
O89 Dy81 2.307 . S
O89 C104 1.266 . S
O90 Dy80 2.298 . S
O90 C104 1.236 . S
O91 Dy81 2.395 . S
O91 C111 1.255 . S
O92 Dy81 2.379 . S
O92 C111 1.249 . S
C93 O83 1.266 . S
C93 O84 1.236 . S
O94 Dy80 2.275 . S
O94 C82 1.254 . S
O95 Dy81 2.339 . S
O95 C82 1.257 . S
C96 C99 1.344 . S
C96 C100 1.328 . S
C96 C102 1.516 . S
C97 C98 1.304 . S
C97 C101 1.323 . S
C98 C97 1.304 . S
C98 C99 1.371 . S
C98 H112 0.930 . S
C99 C96 1.344 . S
C99 C98 1.371 . S
C99 H113 0.931 . S
C100 C96 1.328 . S
C100 C101 1.433 . S
C100 H114 0.931 . S
C101 C97 1.323 . S
C101 C100 1.433 . S
C101 H115 0.933 . S
C102 Dy80 2.738 . S
C102 O85 1.255 . S
C102 O86 1.249 . S
C102 C96 1.516 . S
C103 O87 1.254 . S
C103 O88 1.257 . S
C104 O89 1.266 . S
C104 O90 1.236 . S
C105 C108 1.344 . S
C105 C109 1.328 . S
C105 C111 1.516 . S
C106 C107 1.304 . S
C106 C110 1.323 . S
C107 C106 1.304 . S
C107 C108 1.371 . S
C107 H116 0.930 . S
C108 C105 1.344 . S
C108 C107 1.371 . S
C108 H117 0.931 . S
C109 C105 1.328 . S
C109 C110 1.433 . S
C109 H118 0.931 . S
C110 C106 1.323 . S
C110 C109 1.433 . S
C110 H119 0.933 . S
C111 Dy81 2.738 . S
C111 O91 1.255 . S
C111 O92 1.249 . S
C111 C105 1.516 . S
H112 C98 0.930 . S
H113 C99 0.931 . S
H114 C100 0.931 . S
H115 C101 0.933 . S
H116 C107 0.930 . S
H117 C108 0.931 . S
H118 C109 0.931 . S
H119 C110 0.933 . S
O120 Cd121 2.300 . S
O120 C127 1.275 . S
Cd121 O120 2.300 . S
Cd121 O129 2.381 . S
Cd121 O130 2.378 . S
O122 Cd123 2.385 . S
O122 C127 1.255 1_565 S
Cd123 O122 2.385 . S
Cd123 O124 2.317 . S
O124 Cd123 2.317 . S
O124 C125 1.232 . S
C125 O124 1.232 . S
C125 O126 1.218 . S
O126 C125 1.218 . S
C127 O120 1.275 . S
C127 O122 1.255 1_545 S
C128 O129 1.258 . S
C128 O130 1.256 . S
O129 Cd121 2.381 . S
O129 C128 1.258 . S
O130 Cd121 2.378 . S
O130 C128 1.256 . S
O131 Cd132 2.300 . S
O131 C138 1.275 . S
Cd132 O131 2.300 . S
Cd132 O140 2.381 . S
Cd132 O141 2.378 . S
O133 Cd134 2.385 . S
O133 C138 1.255 . S
Cd134 O133 2.385 . S
Cd134 O135 2.317 . S
O135 Cd134 2.317 . S
O135 C136 1.232 . S
C136 O135 1.232 . S
C136 O137 1.218 . S
O137 C136 1.218 . S
C138 O131 1.275 . S
C138 O133 1.255 . S
C139 O140 1.258 . S
C139 O141 1.256 . S
O140 Cd132 2.381 . S
O140 C139 1.258 . S
O141 Cd132 2.378 . S
O141 C139 1.256 . S
O142 Cd143 2.300 1_554 S
O142 C149 1.275 . S
Cd143 O142 2.300 1_556 S
Cd143 O151 2.381 . S
Cd143 O152 2.378 . S
O144 Cd145 2.385 1_554 S
O144 C149 1.255 1_655 S
Cd145 O144 2.385 1_556 S
Cd145 O146 2.317 . S
O146 Cd145 2.317 . S
O146 C147 1.232 . S
C147 O146 1.232 . S
C147 O148 1.218 . S
O148 C147 1.218 . S
C149 O142 1.275 . S
C149 O144 1.255 1_455 S
C150 O151 1.258 . S
C150 O152 1.256 . S
O151 Cd143 2.381 . S
O151 C150 1.258 . S
O152 Cd143 2.378 . S
O152 C150 1.256 . S
O153 Cd154 2.300 . S
O153 C160 1.275 1_455 S
Cd154 O153 2.300 . S
Cd154 O162 2.381 . S
Cd154 O163 2.378 . S
O155 Cd156 2.385 . S
O155 C160 1.255 . S
Cd156 O155 2.385 . S
Cd156 O157 2.317 . S
O157 Cd156 2.317 . S
O157 C158 1.232 . S
C158 O157 1.232 . S
C158 O159 1.218 . S
O159 C158 1.218 . S
C160 O153 1.275 1_655 S
C160 O155 1.255 . S
C161 O162 1.258 . S
C161 O163 1.256 . S
O162 Cd154 2.381 . S
O162 C161 1.258 . S
O163 Cd154 2.378 . S
O163 C161 1.256 . S
O164 Cd165 2.300 . S
O164 C171 1.275 1_565 S
Cd165 O164 2.300 . S
Cd165 O173 2.381 . S
Cd165 O174 2.378 . S
O166 Cd167 2.385 . S
O166 C171 1.255 . S
Cd167 O166 2.385 . S
Cd167 O168 2.317 . S
O168 Cd167 2.317 . S
O168 C169 1.232 . S
C169 O168 1.232 . S
C169 O170 1.218 . S
O170 C169 1.218 . S
C171 O164 1.275 1_545 S
C171 O166 1.255 . S
C172 O173 1.258 . S
C172 O174 1.256 . S
O173 Cd165 2.381 . S
O173 C172 1.258 . S
O174 Cd165 2.378 . S
O174 C172 1.256 . S
O175 Cd176 2.300 . S
O175 C182 1.275 1_554 S
Cd176 O175 2.300 . S
Cd176 O184 2.381 . S
Cd176 O185 2.378 . S
O177 Cd178 2.385 . S
O177 C182 1.255 1_554 S
Cd178 O177 2.385 . S
Cd178 O179 2.317 . S
O179 Cd178 2.317 . S
O179 C180 1.232 . S
C180 O179 1.232 . S
C180 O181 1.218 . S
O181 C180 1.218 . S
C182 O175 1.275 1_556 S
C182 O177 1.255 1_556 S
C183 O184 1.258 . S
C183 O185 1.256 . S
O184 Cd176 2.381 . S
O184 C183 1.258 . S
O185 Cd176 2.378 . S
O185 C183 1.256 . S
C24 C180 4.664 . S
C66 C158 2.316 . S
C93 C172 2.431 . S
C13 C183 4.707 . S
C161 C57 1.543 . S
C169 C104 2.231 . S
C64 C136 2.200 . S
C97 C147 3.584 . S
C17 C125 2.791 . S
C139 C53 2.391 . S
C150 C106 2.503 . S
C26 C128 2.389 . S
C149 C2 0.814 . S
C63 C127 1.186 . S
C82 C138 1.063 . S
C171 C42 1.223 . S
C182 C103 1.990 . S
C23 C160 1.394 1_455 S
