# Generated by pormake.
# Topology nia, (6,6)-cn, num edge types: 1
# Building blocks:
#     Node 0, Type 0, BuildingBlock: JUFBIX_clean_sbu_0, # of connection points: 6
#     Node 1, Type 0, BuildingBlock: JUFBIX_clean_sbu_0, # of connection points: 6
#     Node 2, Type 1, BuildingBlock: MIDCAF_clean_sbu_0, # of connection points: 6
#     Node 3, Type 1, BuildingBlock: MIDCAF_clean_sbu_0, # of connection points: 6
#     Edge 4, Type (0, 1), None
#     Edge 5, Type (0, 1), None
#     Edge 6, Type (0, 1), None
#     Edge 7, Type (0, 1), None
#     Edge 8, Type (0, 1), None
#     Edge 9, Type (0, 1), None
#     Edge 10, Type (0, 1), None
#     Edge 11, Type (0, 1), None
#     Edge 12, Type (0, 1), None
#     Edge 13, Type (0, 1), None
#     Edge 14, Type (0, 1), None
#     Edge 15, Type (0, 1), None
# Relax obj value: 0.228
# Max RMSD: 0.255
# Mean RMSD: 0.185
data_MOF--net-nia--node1-JUFBIX_clean_sbu_0--node2-MIDCAF_clean_sbu_0--edge1-none
_symmetry_space_group_name_H-M    P1
_symmetry_Int_Tables_number       1
_symmetry_cell_setting            triclinic
loop_
_symmetry_equiv_pos_as_xyz
'x, y, z'
_cell_length_a     11.543884
_cell_length_b     11.542959
_cell_length_c     16.263781
_cell_angle_alpha  79.58285
_cell_angle_beta   79.583141
_cell_angle_gamma 114.4546
loop_
_atom_site_label
_atom_site_type_symbol
_atom_site_fract_x
_atom_site_fract_y
_atom_site_fract_z
_atom_type_partial_charge
Co0 Co -0.02919 0.92386 1.00985 0.0
C1 C 0.72591 0.85896 0.13565 0.0
Co2 Co -0.01551 0.03347 0.10664 0.0
C3 C 0.91417 0.69535 0.94512 0.0
C4 C 0.86989 0.83702 0.87258 0.0
N5 N 0.92981 0.81972 0.93498 0.0
N6 N 0.85216 0.63906 0.88956 0.0
C7 C 0.82301 0.72712 0.84492 0.0
H8 H 0.93744 0.64285 0.99653 0.0
H9 H 0.84455 0.91607 0.85448 0.0
C10 C 0.22939 0.09837 0.98084 0.0
N11 N 0.02548 0.1376 0.18151 0.0
C12 C 0.04113 0.26198 0.17137 0.0
C13 C 0.08541 0.1203 0.24391 0.0
N14 N 0.10314 0.31827 0.22693 0.0
C15 C 0.13228 0.23021 0.27157 0.0
C16 C 0.03889 0.82379 0.15353 0.0
O17 O 0.15723 0.01253 0.9484 0.0
O18 O 0.17228 0.12418 0.04448 0.0
O19 O 0.01751 0.91021 0.18028 0.0
O20 O 0.00959 0.80195 0.08398 0.0
O21 O 0.79806 0.9448 0.16809 0.0
H22 H 0.11074 0.04125 0.26201 0.0
H23 H 0.01787 0.31448 0.11996 0.0
O24 O 0.78301 0.83314 0.07201 0.0
O25 O 0.93779 0.04711 0.93621 0.0
O26 O 0.94571 0.15538 1.03251 0.0
C27 C 0.91641 0.13353 0.96297 0.0
H28 H 0.75385 0.70585 0.80613 0.0
H29 H 0.20144 0.25147 0.31036 0.0
Co30 Co 0.03245 -0.0145 0.60664 0.0
C31 C 0.09735 0.23042 0.48084 0.0
Co32 Co 0.92285 -0.02818 0.50985 0.0
C33 C 0.26091 0.04207 0.6714 0.0
C34 C 0.1193 0.08648 0.74389 0.0
N35 N 0.13657 0.02649 0.68151 0.0
N36 N 0.31721 0.10409 0.72696 0.0
C37 C 0.22919 0.13332 0.77156 0.0
H38 H 0.31338 0.01875 0.62002 0.0
H39 H 0.0403 0.11188 0.76195 0.0
C40 C 0.85794 0.7269 0.63565 0.0
N41 N 0.81872 0.93083 0.43498 0.0
C42 C 0.69438 0.91525 0.44509 0.0
C43 C 0.83599 0.87084 0.3726 0.0
N44 N 0.63808 0.85323 0.38953 0.0
C45 C 0.7261 0.824 0.34493 0.0
C46 C 0.13252 0.91744 0.46296 0.0
O47 O 0.94378 0.79906 0.66808 0.0
O48 O 0.83213 0.78401 0.572 0.0
O49 O 0.0461 0.93881 0.4362 0.0
O50 O 0.15435 0.94673 0.53251 0.0
O51 O 0.01151 0.15826 0.44841 0.0
H52 H 0.915 0.84544 0.35454 0.0
H53 H 0.64191 0.93857 0.49648 0.0
O54 O 0.12316 0.17331 0.54449 0.0
O55 O 0.9092 0.01851 0.68029 0.0
O56 O 0.80094 0.01059 0.58398 0.0
C57 C 0.82277 0.03988 0.65353 0.0
H58 H 0.25048 0.2025 0.81034 0.0
H59 H 0.70481 0.75482 0.30616 0.0
Zn60 Zn 0.32685 0.70655 0.15142 0.0
Zn61 Zn 0.24984 0.62953 0.46505 0.0
Zn62 Zn 0.27826 0.6781 0.30824 0.0
C63 C 0.50874 0.79387 0.39509 0.0
C64 C 0.1542 0.37833 0.45593 0.0
O65 O 0.15103 0.7661 0.258 0.0
O66 O 0.22575 0.79368 0.11692 0.0
C67 C 0.57801 0.80214 0.16055 0.0
O68 O 0.47207 0.77022 0.32709 0.0
O69 O 0.42561 0.74699 0.46898 0.0
O70 O 0.18098 0.43489 0.51446 0.0
O71 O 0.17649 0.45056 0.37818 0.0
O72 O 0.52146 0.7754 0.10201 0.0
O73 O 0.50578 0.77984 0.2383 0.0
O74 O 0.18614 0.48428 0.28939 0.0
O75 O 0.2094 0.53076 0.14749 0.0
C76 C 0.16251 0.44762 0.22138 0.0
O77 O 0.19025 0.80532 0.35847 0.0
O78 O 0.16268 0.7306 0.49955 0.0
C79 C 0.14092 0.79074 0.17923 0.0
C80 C 0.1656 0.81542 0.43724 0.0
Zn81 Zn 0.62845 0.25078 0.96507 0.0
Zn82 Zn 0.70545 0.32779 0.65144 0.0
Zn83 Zn 0.67704 0.27922 0.80825 0.0
C84 C 0.80109 0.57899 0.66056 0.0
C85 C 0.44655 0.16344 0.72141 0.0
O86 O 0.80426 0.19122 0.85849 0.0
O87 O 0.72955 0.16365 0.99957 0.0
C88 C 0.79279 0.50971 0.8951 0.0
O89 O 0.77881 0.50676 0.73831 0.0
O90 O 0.77431 0.52243 0.60203 0.0
O91 O 0.52968 0.21033 0.64752 0.0
O92 O 0.48322 0.18709 0.78941 0.0
O93 O 0.74589 0.42657 0.96899 0.0
O94 O 0.76916 0.47305 0.8271 0.0
O95 O 0.44952 0.17748 0.87819 0.0
O96 O 0.43383 0.18192 1.01448 0.0
C97 C 0.37729 0.15519 0.95594 0.0
O98 O 0.76504 0.152 0.75802 0.0
O99 O 0.79261 0.22672 0.61694 0.0
C100 C 0.81437 0.16659 0.93726 0.0
C101 C 0.78969 0.1419 0.67925 0.0
loop_
_geom_bond_atom_site_label_1
_geom_bond_atom_site_label_2
_geom_bond_distance
_geom_bond_site_symmetry_2
_ccdc_geom_bond_type
Co0 N5 2.057 . S
Co0 O17 2.021 1_665 S
Co0 O20 2.062 1_656 S
Co0 O24 2.117 1_556 S
Co0 O25 2.020 1_565 S
C1 O21 1.259 1_565 S
C1 O24 1.258 . S
Co2 N11 2.057 . S
Co2 O18 2.117 1_554 S
Co2 O19 2.020 1_545 S
Co2 O21 2.021 1_455 S
Co2 O26 2.062 1_454 S
C3 N5 1.316 . S
C3 N6 1.347 . S
C3 H8 0.931 1_655 S
C4 N5 1.375 . S
C4 C7 1.350 . S
C4 H9 0.930 1_556 S
N5 Co0 2.057 . S
N5 C3 1.316 . S
N5 C4 1.375 . S
N6 C3 1.347 . S
N6 C7 1.373 . S
C7 C4 1.350 . S
C7 N6 1.373 . S
C7 H28 0.931 . S
H8 C3 0.931 1_455 S
H9 C4 0.930 1_554 S
C10 O17 1.259 . S
C10 O18 1.258 . S
N11 Co2 2.057 . S
N11 C12 1.316 . S
N11 C13 1.375 . S
C12 N11 1.316 . S
C12 N14 1.347 . S
C12 H23 0.931 . S
C13 N11 1.375 . S
C13 C15 1.350 . S
C13 H22 0.930 . S
N14 C12 1.347 . S
N14 C15 1.373 . S
C15 C13 1.350 . S
C15 N14 1.373 . S
C15 H29 0.931 . S
C16 O19 1.256 . S
C16 O20 1.255 . S
O17 Co0 2.021 1_445 S
O17 C10 1.259 . S
O18 Co2 2.117 1_556 S
O18 C10 1.258 . S
O19 Co2 2.020 1_565 S
O19 C16 1.256 . S
O20 Co0 2.062 1_454 S
O20 C16 1.255 . S
O21 C1 1.259 1_545 S
O21 Co2 2.021 1_655 S
H22 C13 0.930 . S
H23 C12 0.931 . S
O24 Co0 2.117 1_554 S
O24 C1 1.258 . S
O25 Co0 2.020 1_545 S
O25 C27 1.256 . S
O26 Co2 2.062 1_656 S
O26 C27 1.255 . S
C27 O25 1.256 . S
C27 O26 1.255 . S
H28 C7 0.931 . S
H29 C15 0.931 . S
Co30 N35 2.057 . S
Co30 O47 2.021 1_545 S
Co30 O50 2.062 1_545 S
Co30 O54 2.117 . S
Co30 O55 2.020 1_455 S
C31 O51 1.259 . S
C31 O54 1.258 . S
Co32 N41 2.057 . S
Co32 O48 2.117 . S
Co32 O49 2.020 1_655 S
Co32 O51 2.021 1_665 S
Co32 O56 2.062 1_565 S
C33 N35 1.316 . S
C33 N36 1.347 . S
C33 H38 0.931 1_545 S
C34 N35 1.375 . S
C34 C37 1.350 . S
C34 H39 0.930 . S
N35 Co30 2.057 . S
N35 C33 1.316 . S
N35 C34 1.375 . S
N36 C33 1.347 . S
N36 C37 1.373 . S
C37 C34 1.350 . S
C37 N36 1.373 . S
C37 H58 0.931 . S
H38 C33 0.931 1_565 S
H39 C34 0.930 . S
C40 O47 1.259 1_655 S
C40 O48 1.258 . S
N41 Co32 2.057 . S
N41 C42 1.316 . S
N41 C43 1.375 . S
C42 N41 1.316 . S
C42 N44 1.347 . S
C42 H53 0.931 1_565 S
C43 N41 1.375 . S
C43 C45 1.350 . S
C43 H52 0.930 . S
N44 C42 1.347 . S
N44 C45 1.373 . S
C45 C43 1.350 . S
C45 N44 1.373 . S
C45 H59 0.931 . S
C46 O49 1.256 . S
C46 O50 1.255 . S
O47 Co30 2.021 1_565 S
O47 C40 1.259 1_455 S
O48 Co32 2.117 . S
O48 C40 1.258 . S
O49 Co32 2.020 1_455 S
O49 C46 1.256 . S
O50 Co30 2.062 1_565 S
O50 C46 1.255 . S
O51 C31 1.259 . S
O51 Co32 2.021 1_445 S
H52 C43 0.930 . S
H53 C42 0.931 1_545 S
O54 Co30 2.117 . S
O54 C31 1.258 . S
O55 Co30 2.020 1_655 S
O55 C57 1.256 . S
O56 Co32 2.062 1_545 S
O56 C57 1.255 . S
C57 O55 1.256 . S
C57 O56 1.255 . S
H58 C37 0.931 . S
H59 C45 0.931 . S
Zn60 O66 1.920 . S
Zn60 O72 1.898 . S
Zn60 O75 1.905 . S
Zn61 O69 1.905 . S
Zn61 O70 1.898 . S
Zn61 O78 1.920 . S
Zn62 O65 2.080 . S
Zn62 O68 2.114 . S
Zn62 O71 2.120 . S
Zn62 O73 2.120 . S
Zn62 O74 2.114 . S
Zn62 O77 2.080 . S
C63 O68 1.166 . S
C63 O69 1.182 . S
C64 O70 1.167 . S
C64 O71 1.299 . S
O65 Zn62 2.080 . S
O65 C79 1.305 . S
O66 Zn60 1.920 . S
O66 C79 1.234 . S
C67 O72 1.167 . S
C67 O73 1.299 . S
O68 Zn62 2.114 . S
O68 C63 1.166 . S
O69 Zn61 1.905 . S
O69 C63 1.182 . S
O70 Zn61 1.898 . S
O70 C64 1.167 . S
O71 Zn62 2.120 . S
O71 C64 1.299 . S
O72 Zn60 1.898 . S
O72 C67 1.167 . S
O73 Zn62 2.120 . S
O73 C67 1.299 . S
O74 Zn62 2.114 . S
O74 C76 1.166 . S
O75 Zn60 1.905 . S
O75 C76 1.182 . S
C76 O74 1.166 . S
C76 O75 1.182 . S
O77 Zn62 2.080 . S
O77 C80 1.305 . S
O78 Zn61 1.920 . S
O78 C80 1.234 . S
C79 O65 1.305 . S
C79 O66 1.234 . S
C80 O77 1.305 . S
C80 O78 1.234 . S
Zn81 O87 1.920 . S
Zn81 O93 1.898 . S
Zn81 O96 1.905 . S
Zn82 O90 1.905 . S
Zn82 O91 1.898 . S
Zn82 O99 1.920 . S
Zn83 O86 2.080 . S
Zn83 O89 2.114 . S
Zn83 O92 2.120 . S
Zn83 O94 2.120 . S
Zn83 O95 2.114 . S
Zn83 O98 2.080 . S
C84 O89 1.166 . S
C84 O90 1.182 . S
C85 O91 1.167 . S
C85 O92 1.299 . S
O86 Zn83 2.080 . S
O86 C100 1.305 . S
O87 Zn81 1.920 . S
O87 C100 1.234 . S
C88 O93 1.167 . S
C88 O94 1.299 . S
O89 Zn83 2.114 . S
O89 C84 1.166 . S
O90 Zn82 1.905 . S
O90 C84 1.182 . S
O91 Zn82 1.898 . S
O91 C85 1.167 . S
O92 Zn83 2.120 . S
O92 C85 1.299 . S
O93 Zn81 1.898 . S
O93 C88 1.167 . S
O94 Zn83 2.120 . S
O94 C88 1.299 . S
O95 Zn83 2.114 . S
O95 C97 1.166 . S
O96 Zn81 1.905 . S
O96 C97 1.182 . S
C97 O95 1.166 . S
C97 O96 1.182 . S
O98 Zn83 2.080 . S
O98 C101 1.305 . S
O99 Zn82 1.920 . S
O99 C101 1.234 . S
C100 O86 1.305 . S
C100 O87 1.234 . S
C101 O98 1.305 . S
C101 O99 1.234 . S
C16 C79 1.297 . S
N36 C85 0.832 . S
N14 C76 1.105 . S
C57 C101 2.137 . S
C1 C67 2.538 . S
C84 C40 2.067 . S
C46 C80 1.297 . S
C97 C10 2.067 . S
C64 C31 2.537 . S
C100 C27 2.137 . S
C63 N44 1.105 . S
C88 N6 0.832 . S
