# Generated by pormake.
# Topology scu, (8,4)-cn, num edge types: 1
# Building blocks:
#     Node 0, Type 0, BuildingBlock: GIZVER_clean_sbu_0, # of connection points: 8
#     Node 1, Type 1, BuildingBlock: KOZSID_clean_sbu_0, # of connection points: 4
#     Node 2, Type 1, BuildingBlock: KOZSID_clean_sbu_0, # of connection points: 4
#     Edge 3, Type (0, 1), None
#     Edge 4, Type (0, 1), None
#     Edge 5, Type (0, 1), None
#     Edge 6, Type (0, 1), None
#     Edge 7, Type (0, 1), None
#     Edge 8, Type (0, 1), None
#     Edge 9, Type (0, 1), None
#     Edge 10, Type (0, 1), None
# Relax obj value: 0.044
# Max RMSD: 0.112
# Mean RMSD: 0.103
data_MOF--net-scu--node1-GIZVER_clean_sbu_0--node2-KOZSID_clean_sbu_0--edge1-none
_symmetry_space_group_name_H-M    P1
_symmetry_Int_Tables_number       1
_symmetry_cell_setting            triclinic
loop_
_symmetry_equiv_pos_as_xyz
'x, y, z'
_cell_length_a     13.801253
_cell_length_b     14.470359
_cell_length_c     13.23369
_cell_angle_alpha  98.109297
_cell_angle_beta   68.99708
_cell_angle_gamma 110.60159
loop_
_atom_site_label
_atom_site_type_symbol
_atom_site_fract_x
_atom_site_fract_y
_atom_site_fract_z
_atom_type_partial_charge
Co0 Co 1.02383 0.87328 0.20968 0.0
Co1 Co 0.19446 0.02188 0.13366 0.0
Co2 Co 0.03542 0.02001 0.01459 0.0
O3 O 0.09287 0.94078 0.07539 0.0
H4 H 0.12724 0.89987 0.02099 0.0
O5 O 0.97796 0.09924 0.95378 0.0
Co6 Co 0.047 0.16674 0.81949 0.0
Co7 Co 0.87637 0.01815 0.89552 0.0
H8 H 0.94359 0.14015 1.00818 0.0
O9 O 0.31004 0.98705 0.12047 0.0
O10 O 0.14855 0.961 0.26195 0.0
O11 O 0.19907 0.15441 0.17263 0.0
O12 O 0.06051 0.139 0.1171 0.0
O13 O 0.18468 0.074 0.90641 0.0
O14 O 0.10522 0.2395 0.69939 0.0
O15 O 0.97861 0.26002 0.85658 0.0
O16 O 0.13692 0.08032 0.76315 0.0
O17 O 1.01031 0.90102 0.91208 0.0
O18 O 0.87174 0.88561 0.85657 0.0
O19 O 0.92228 0.07901 0.76722 0.0
O20 O 0.76079 0.05298 0.90871 0.0
C21 C 1.03052 0.75163 0.27129 0.0
C22 C 0.86775 0.97167 0.2248 0.0
C23 C 0.1255 0.18564 0.16979 0.0
C24 C 0.25244 0.96563 0.22135 0.0
C25 C 0.04031 0.28839 0.75789 0.0
C26 C 0.20308 0.06834 0.80437 0.0
C27 C 0.94532 0.85438 0.85939 0.0
C28 C 0.81839 0.07437 0.80783 0.0
O29 O 0.96561 0.80053 0.32978 0.0
O30 O 0.09221 0.78 0.1726 0.0
O31 O 0.88615 0.96602 0.12277 0.0
O32 O 0.93392 0.9597 0.26602 0.0
C33 C 0.13939 0.66653 0.32674 0.0
C34 C 0.24155 0.72069 0.25885 0.0
C35 C 0.31781 0.70869 0.2943 0.0
C36 C 0.25836 0.64713 0.38069 0.0
N37 N 0.14902 0.61827 0.40238 0.0
Co38 Co 0.0354 0.52001 0.51459 0.0
N39 N 0.14839 0.50465 0.56779 0.0
C40 C 0.2573 0.55196 0.52971 0.0
C41 C 0.31556 0.52723 0.5804 0.0
C42 C 0.23905 0.45908 0.65528 0.0
C43 C 0.13825 0.44562 0.64536 0.0
N44 N 0.92179 0.42176 0.62681 0.0
C45 C 0.93141 0.37347 0.70243 0.0
C46 C 0.82926 0.31928 0.77029 0.0
C47 C 0.753 0.33126 0.73482 0.0
C48 C 0.81246 0.39285 0.64845 0.0
N49 N 0.92242 0.53537 0.46139 0.0
C50 C 0.81351 0.48804 0.49946 0.0
C51 C 0.75525 0.51277 0.44876 0.0
C52 C 0.83176 0.58094 0.3739 0.0
C53 C 0.93256 0.5944 0.38383 0.0
N54 N 0.05395 0.41144 0.40602 0.0
C55 C 0.09994 0.26452 0.24896 0.0
C56 C 0.07958 0.34447 0.22254 0.0
C57 C 0.05821 0.4175 0.30163 0.0
C58 C 0.09195 0.25731 0.35603 0.0
C59 C 0.06715 0.32971 0.43277 0.0
N60 N 1.01685 0.62858 0.62317 0.0
C61 C 0.97887 0.78271 0.67315 0.0
C62 C 0.97087 0.7755 0.78023 0.0
C63 C 0.99123 0.69555 0.80665 0.0
C64 C 1.01259 0.62252 0.72756 0.0
C65 C 1.00367 0.71031 0.59641 0.0
H66 H 1.02436 0.56117 0.75253 0.0
H67 H 1.01111 0.72161 0.51589 0.0
H68 H 0.04643 0.47884 0.27666 0.0
H69 H 0.05972 0.31842 0.5133 0.0
C70 C 0.30246 0.61501 0.44278 0.0
C71 C 0.03529 0.66642 0.3198 0.0
C72 C 0.03552 0.3736 0.7094 0.0
C73 C 0.76836 0.42496 0.58636 0.0
H74 H 0.25975 0.76426 0.19049 0.0
H75 H 0.4062 0.74082 0.26086 0.0
H76 H 0.40342 0.55411 0.56367 0.0
H77 H 0.25559 0.42234 0.71002 0.0
H78 H 0.81106 0.27569 0.83864 0.0
H79 H 0.66461 0.2991 0.76823 0.0
H80 H 0.66739 0.48587 0.46548 0.0
H81 H 0.81522 0.61768 0.31916 0.0
H82 H 0.08262 0.35182 0.14103 0.0
H83 H 0.10325 0.19479 0.3812 0.0
H84 H 0.96758 0.84524 0.64798 0.0
H85 H 0.98818 0.6882 0.88816 0.0
C86 C 0.32816 0.96106 0.71634 0.0
C87 C 0.25758 0.8796 0.77894 0.0
C88 C 0.2955 0.80257 0.73617 0.0
C89 C 0.3873 0.8411 0.64966 0.0
N90 N 0.41065 0.93777 0.63476 0.0
Co91 Co 0.53541 0.02001 0.51459 0.0
N92 N 0.58869 0.90516 0.44987 0.0
C93 C 0.54189 0.81193 0.48604 0.0
C94 C 0.5964 0.74847 0.42717 0.0
C95 C 0.68441 0.80491 0.34863 0.0
C96 C 0.67842 0.89987 0.36455 0.0
N97 N 0.66019 0.10224 0.39442 0.0
C98 C 0.74266 0.07895 0.31283 0.0
C99 C 0.81322 0.16041 0.25021 0.0
C100 C 0.77528 0.23742 0.29295 0.0
C101 C 0.68349 0.1989 0.37947 0.0
N102 N 0.48214 0.13486 0.5793 0.0
C103 C 0.52893 0.22808 0.54312 0.0
C104 C 0.47442 0.29154 0.602 0.0
C105 C 0.38643 0.23511 0.68055 0.0
C106 C 0.39242 0.14014 0.66463 0.0
N107 N 0.63112 0.05438 0.60467 0.0
C108 C 0.75873 0.0789 0.73679 0.0
C109 C 0.65096 0.0816 0.78097 0.0
C110 C 0.58956 0.07087 0.71356 0.0
C111 C 0.8039 0.07109 0.62499 0.0
C112 C 0.73888 0.05836 0.56108 0.0
N113 N 0.43971 0.98563 0.4245 0.0
C114 C 0.26693 0.96893 0.40418 0.0
C115 C 0.31209 0.96109 0.29238 0.0
C116 C 0.41986 0.95838 0.24821 0.0
C117 C 0.48126 0.96912 0.31562 0.0
C118 C 0.33196 0.98167 0.46809 0.0
H119 H 0.56313 0.96639 0.27832 0.0
H120 H 0.29362 0.99107 0.55201 0.0
H121 H 0.50769 0.07359 0.75086 0.0
H122 H 0.77722 0.04899 0.47716 0.0
C123 C 0.45019 0.78767 0.57841 0.0
C124 C 0.30951 0.05711 0.73144 0.0
C125 C 0.76132 0.98291 0.29774 0.0
C126 C 0.6206 0.25233 0.45073 0.0
H127 H 0.18473 0.87506 0.84649 0.0
H128 H 0.2589 0.72696 0.76325 0.0
H129 H 0.57591 0.67087 0.44088 0.0
H130 H 0.74672 0.77943 0.28736 0.0
H131 H 0.88607 0.16494 0.18266 0.0
H132 H 0.81187 0.31303 0.26585 0.0
H133 H 0.4949 0.36914 0.58827 0.0
H134 H 0.32412 0.26059 0.74183 0.0
H135 H 0.61316 0.09012 0.86741 0.0
H136 H 0.88727 0.06984 0.58698 0.0
H137 H 0.18357 0.9702 0.44219 0.0
H138 H 0.45765 0.94984 0.16177 0.0
loop_
_geom_bond_atom_site_label_1
_geom_bond_atom_site_label_2
_geom_bond_distance
_geom_bond_site_symmetry_2
_ccdc_geom_bond_type
Co0 O3 2.042 1_655 S
Co0 O10 2.263 1_665 S
Co0 O29 2.286 . S
Co0 O30 2.069 1_655 S
Co0 O32 2.015 . S
Co1 O3 2.122 1_545 S
Co1 O9 2.073 . S
Co1 O10 2.328 . S
Co1 O11 1.976 . S
Co2 O3 2.087 1_545 S
Co2 O5 2.087 1_454 S
Co2 O12 2.111 . S
Co2 O13 2.143 1_554 S
Co2 O17 2.111 1_444 S
Co2 O31 2.143 1_445 S
O3 Co0 2.042 1_455 S
O3 Co1 2.122 1_565 S
O3 Co2 2.087 1_565 S
O3 H4 0.980 . S
H4 O3 0.980 . S
O5 Co2 2.087 1_656 S
O5 Co6 2.042 1_655 S
O5 Co7 2.122 1_545 S
O5 H8 0.980 . S
Co6 O5 2.042 1_455 S
Co6 O14 2.286 . S
Co6 O15 2.069 1_455 S
Co6 O16 2.015 . S
Co6 O19 2.264 1_455 S
Co7 O5 2.122 1_565 S
Co7 O18 1.976 . S
Co7 O19 2.327 1_565 S
Co7 O20 2.073 . S
H8 O5 0.980 . S
O9 Co1 2.073 . S
O9 C24 1.245 1_545 S
O10 Co0 2.263 1_445 S
O10 Co1 2.328 . S
O10 C24 1.257 1_545 S
O11 Co1 1.976 . S
O11 C23 1.251 . S
O12 Co2 2.111 . S
O12 C23 1.274 . S
O13 Co2 2.143 1_556 S
O13 C26 1.246 . S
O14 Co6 2.286 . S
O14 C25 1.259 . S
O15 Co6 2.069 1_655 S
O15 C25 1.289 1_655 S
O16 Co6 2.015 . S
O16 C26 1.257 . S
O17 Co2 2.111 1_666 S
O17 C27 1.274 . S
O18 Co7 1.976 . S
O18 C27 1.251 . S
O19 Co6 2.264 1_655 S
O19 Co7 2.327 1_545 S
O19 C28 1.257 . S
O20 Co7 2.073 . S
O20 C28 1.245 1_565 S
C21 O29 1.259 . S
C21 O30 1.289 1_655 S
C22 O31 1.246 . S
C22 O32 1.257 . S
C23 O11 1.251 . S
C23 O12 1.274 . S
C24 O9 1.245 1_565 S
C24 O10 1.257 1_565 S
C25 O14 1.259 . S
C25 O15 1.289 1_455 S
C26 O13 1.246 . S
C26 O16 1.257 . S
C27 O17 1.274 . S
C27 O18 1.251 . S
C28 O19 1.257 . S
C28 O20 1.245 1_545 S
O29 Co0 2.286 . S
O29 C21 1.259 . S
O30 Co0 2.069 1_455 S
O30 C21 1.289 1_455 S
O31 Co2 2.143 1_665 S
O31 C22 1.246 . S
O32 Co0 2.015 . S
O32 C22 1.257 . S
C33 C34 1.443 . S
C33 N37 1.376 . S
C33 C71 1.389 . S
C34 C33 1.443 . S
C34 C35 1.340 . S
C34 H74 0.951 . S
C35 C34 1.340 . S
C35 C36 1.439 . S
C35 H75 0.950 . S
C36 C35 1.439 . S
C36 N37 1.374 . S
C36 C70 1.395 . S
N37 C33 1.376 . S
N37 C36 1.374 . S
N37 Co38 2.008 . S
Co38 N37 2.008 . S
Co38 N39 1.995 . S
Co38 N44 2.008 1_455 S
Co38 N49 1.995 1_455 S
Co38 N54 2.282 . S
Co38 N60 2.282 1_455 S
N39 Co38 1.995 . S
N39 C40 1.376 . S
N39 C43 1.383 . S
C40 N39 1.376 . S
C40 C41 1.446 . S
C40 C70 1.391 . S
C41 C40 1.446 . S
C41 C42 1.339 . S
C41 H76 0.949 . S
C42 C41 1.339 . S
C42 C43 1.439 . S
C42 H77 0.950 . S
C43 N39 1.383 . S
C43 C42 1.439 . S
C43 C72 1.394 . S
N44 Co38 2.008 1_655 S
N44 C45 1.376 . S
N44 C48 1.374 . S
C45 N44 1.376 . S
C45 C46 1.443 . S
C45 C72 1.386 1_655 S
C46 C45 1.443 . S
C46 C47 1.340 . S
C46 H78 0.951 . S
C47 C46 1.340 . S
C47 C48 1.439 . S
C47 H79 0.950 . S
C48 N44 1.374 . S
C48 C47 1.439 . S
C48 C73 1.395 . S
N49 Co38 1.995 1_655 S
N49 C50 1.376 . S
N49 C53 1.383 . S
C50 N49 1.376 . S
C50 C51 1.446 . S
C50 C73 1.391 . S
C51 C50 1.446 . S
C51 C52 1.339 . S
C51 H80 0.949 . S
C52 C51 1.339 . S
C52 C53 1.439 . S
C52 H81 0.950 . S
C53 N49 1.383 . S
C53 C52 1.439 . S
C53 C71 1.392 1_655 S
N54 Co38 2.282 . S
N54 C57 1.332 1_455 S
N54 C59 1.332 . S
C55 C56 1.386 1_455 S
C55 C58 1.388 . S
C56 C55 1.386 1_655 S
C56 C57 1.382 . S
C56 H82 0.950 . S
C57 N54 1.332 1_655 S
C57 C56 1.382 . S
C57 H68 0.952 . S
C58 C55 1.388 . S
C58 C59 1.382 . S
C58 H83 0.950 . S
C59 N54 1.332 . S
C59 C58 1.382 . S
C59 H69 0.948 . S
N60 Co38 2.282 1_655 S
N60 C64 1.332 1_655 S
N60 C65 1.332 . S
C61 C62 1.383 1_655 S
C61 C65 1.382 . S
C61 H84 0.950 . S
C62 C61 1.383 1_455 S
C62 C63 1.391 . S
C63 C62 1.391 . S
C63 C64 1.382 . S
C63 H85 0.950 . S
C64 N60 1.332 1_455 S
C64 C63 1.382 . S
C64 H66 0.952 . S
C65 N60 1.332 . S
C65 C61 1.382 . S
C65 H67 0.948 . S
H66 C64 0.952 . S
H67 C65 0.948 . S
H68 C57 0.952 . S
H69 C59 0.948 . S
C70 C36 1.395 . S
C70 C40 1.391 . S
C71 C33 1.389 . S
C71 C53 1.392 1_455 S
C72 C43 1.394 . S
C72 C45 1.386 1_455 S
C73 C48 1.395 . S
C73 C50 1.391 . S
H74 C34 0.951 . S
H75 C35 0.950 . S
H76 C41 0.949 . S
H77 C42 0.950 . S
H78 C46 0.951 . S
H79 C47 0.950 . S
H80 C51 0.949 . S
H81 C52 0.950 . S
H82 C56 0.950 . S
H83 C58 0.950 . S
H84 C61 0.950 . S
H85 C63 0.950 . S
C86 C87 1.443 . S
C86 N90 1.376 . S
C86 C124 1.389 1_565 S
C87 C86 1.443 . S
C87 C88 1.340 . S
C87 H127 0.951 . S
C88 C87 1.340 . S
C88 C89 1.439 . S
C88 H128 0.950 . S
C89 C88 1.439 . S
C89 N90 1.374 . S
C89 C123 1.395 . S
N90 C86 1.376 . S
N90 C89 1.374 . S
N90 Co91 2.008 1_565 S
Co91 N90 2.008 1_545 S
Co91 N92 1.995 1_545 S
Co91 N97 2.008 . S
Co91 N102 1.995 . S
Co91 N107 2.282 1_545 S
Co91 N113 2.282 . S
N92 Co91 1.995 1_565 S
N92 C93 1.376 . S
N92 C96 1.383 . S
C93 N92 1.376 . S
C93 C94 1.446 . S
C93 C123 1.391 . S
C94 C93 1.446 . S
C94 C95 1.339 . S
C94 H129 0.949 . S
C95 C94 1.339 . S
C95 C96 1.439 . S
C95 H130 0.950 . S
C96 N92 1.383 . S
C96 C95 1.439 . S
C96 C125 1.392 1_565 S
N97 Co91 2.008 . S
N97 C98 1.376 . S
N97 C101 1.374 . S
C98 N97 1.376 . S
C98 C99 1.443 . S
C98 C125 1.389 . S
C99 C98 1.443 . S
C99 C100 1.340 . S
C99 H131 0.951 . S
C100 C99 1.340 . S
C100 C101 1.439 . S
C100 H132 0.950 . S
C101 N97 1.374 . S
C101 C100 1.439 . S
C101 C126 1.395 . S
N102 Co91 1.995 . S
N102 C103 1.376 . S
N102 C106 1.383 . S
C103 N102 1.376 . S
C103 C104 1.446 . S
C103 C126 1.391 . S
C104 C103 1.446 . S
C104 C105 1.339 . S
C104 H133 0.949 . S
C105 C104 1.339 . S
C105 C106 1.439 . S
C105 H134 0.950 . S
C106 N102 1.383 . S
C106 C105 1.439 . S
C106 C124 1.392 . S
N107 Co91 2.282 1_565 S
N107 C110 1.332 1_565 S
N107 C112 1.332 . S
C108 C109 1.386 . S
C108 C111 1.388 1_545 S
C109 C108 1.386 . S
C109 C110 1.382 . S
C109 H135 0.950 . S
C110 N107 1.332 1_545 S
C110 C109 1.382 . S
C110 H121 0.952 . S
C111 C108 1.388 1_565 S
C111 C112 1.382 . S
C111 H136 0.950 . S
C112 N107 1.332 . S
C112 C111 1.382 . S
C112 H122 0.948 . S
N113 Co91 2.282 . S
N113 C117 1.332 1_545 S
N113 C118 1.332 . S
C114 C115 1.388 . S
C114 C118 1.382 . S
C114 H137 0.950 . S
C115 C114 1.388 . S
C115 C116 1.386 1_545 S
C116 C115 1.386 1_565 S
C116 C117 1.382 . S
C116 H138 0.950 . S
C117 N113 1.332 1_565 S
C117 C116 1.382 . S
C117 H119 0.952 . S
C118 N113 1.332 . S
C118 C114 1.382 . S
C118 H120 0.948 . S
H119 C117 0.952 . S
H120 C118 0.948 . S
H121 C110 0.952 . S
H122 C112 0.948 . S
C123 C89 1.395 . S
C123 C93 1.391 . S
C124 C86 1.389 1_545 S
C124 C106 1.392 . S
C125 C96 1.392 1_545 S
C125 C98 1.389 . S
C126 C101 1.395 . S
C126 C103 1.391 . S
H127 C87 0.951 . S
H128 C88 0.950 . S
H129 C94 0.949 . S
H130 C95 0.950 . S
H131 C99 0.951 . S
H132 C100 0.950 . S
H133 C104 0.949 . S
H134 C105 0.950 . S
H135 C109 0.950 . S
H136 C111 0.950 . S
H137 C114 0.950 . S
H138 C116 0.950 . S
C23 C55 1.251 . S
C22 C125 1.770 1_565 S
C21 C71 2.024 1_655 S
C24 C115 1.388 1_565 S
C27 C62 1.251 1_655 S
C26 C124 1.770 . S
C72 C25 2.027 . S
C28 C108 1.389 . S
