# Generated by pormake.
# Topology pts, (4,4)-cn, num edge types: 1
# Building blocks:
#     Node 0, Type 0, BuildingBlock: ESEHIV_clean_sbu_0, # of connection points: 4
#     Node 1, Type 0, BuildingBlock: ESEHIV_clean_sbu_0, # of connection points: 4
#     Node 2, Type 1, BuildingBlock: QUQFOY_clean_sbu_1, # of connection points: 4
#     Node 3, Type 1, BuildingBlock: QUQFOY_clean_sbu_1, # of connection points: 4
#     Edge 4, Type (0, 1), BuildingBlock: FUNLAD_clean_linker_0, # of connection points: 2
#     Edge 5, Type (0, 1), BuildingBlock: FUNLAD_clean_linker_0, # of connection points: 2
#     Edge 6, Type (0, 1), BuildingBlock: FUNLAD_clean_linker_0, # of connection points: 2
#     Edge 7, Type (0, 1), BuildingBlock: FUNLAD_clean_linker_0, # of connection points: 2
#     Edge 8, Type (0, 1), BuildingBlock: FUNLAD_clean_linker_0, # of connection points: 2
#     Edge 9, Type (0, 1), BuildingBlock: FUNLAD_clean_linker_0, # of connection points: 2
#     Edge 10, Type (0, 1), BuildingBlock: FUNLAD_clean_linker_0, # of connection points: 2
#     Edge 11, Type (0, 1), BuildingBlock: FUNLAD_clean_linker_0, # of connection points: 2
# Relax obj value: 0.097
# Max RMSD: 0.250
# Mean RMSD: 0.176
data_MOF--net-pts--node1-ESEHIV_clean_sbu_0--node2-QUQFOY_clean_sbu_1--edge1-FUNLAD_clean_linker_0
_symmetry_space_group_name_H-M    P1
_symmetry_Int_Tables_number       1
_symmetry_cell_setting            triclinic
loop_
_symmetry_equiv_pos_as_xyz
'x, y, z'
_cell_length_a     27.57241
_cell_length_b     29.566655
_cell_length_c     45.615362
_cell_angle_alpha  92.966859
_cell_angle_beta   93.424551
_cell_angle_gamma 89.539043
loop_
_atom_site_label
_atom_site_type_symbol
_atom_site_fract_x
_atom_site_fract_y
_atom_site_fract_z
_atom_type_partial_charge
Cu0 Cu 0.51953 0.04717 0.01087 0.0
N1 N 0.55567 1.0162 0.98285 0.0
N2 N 0.61414 1.00626 0.95119 0.0
C3 C 0.60027 0.02851 0.97593 0.0
C4 C 0.577 0.97818 0.94255 0.0
C5 C 0.54083 0.98463 0.96203 0.0
O6 O 0.56423 0.07104 0.04233 0.0
C7 C 0.48553 0.10599 0.96637 0.0
O8 O 0.52686 0.09668 0.95445 0.0
H9 H 0.62076 0.05528 0.98792 0.0
H10 H 0.50502 0.96974 0.95994 0.0
N11 N 0.4767 1.00949 0.02805 0.0
N12 N 0.41994 0.99074 0.05812 0.0
C13 C 0.44753 0.02422 0.04914 0.0
C14 C 0.46752 0.96497 0.02343 0.0
C15 C 0.43222 0.95332 0.04192 0.0
C16 C 0.58473 0.04063 0.05759 0.0
O17 O 0.57508 0.99793 0.05028 0.0
H18 H 0.4462 0.05917 0.05739 0.0
H19 H 0.48535 0.94252 1.00797 0.0
O20 O 0.47855 0.09207 0.99173 0.0
H21 H 0.5746 0.95693 0.92248 0.0
H22 H 0.41732 0.91986 0.04359 0.0
Cu23 Cu 0.05855 0.59145 0.51987 0.0
N24 N 0.09308 0.55995 0.54893 0.0
N25 N 0.10886 0.50506 0.58013 0.0
C26 C 0.0809 0.51854 0.55687 0.0
C27 C 0.14004 0.53953 0.58709 0.0
C28 C 0.13024 0.57338 0.56773 0.0
O29 O 0.03082 0.54625 0.49129 0.0
C30 C 0.00291 0.63268 0.56487 0.0
O31 O 0.01516 0.5972 0.57988 0.0
H32 H 0.05046 0.49962 0.54657 0.0
H33 H 0.14793 0.60592 0.56789 0.0
N34 N 0.09779 0.62915 0.50006 0.0
N35 N 0.11471 0.68631 0.47213 0.0
C36 C 0.07962 0.66275 0.4839 0.0
C37 C 0.14631 0.63125 0.4987 0.0
C38 C 0.1569 0.66663 0.48145 0.0
C39 C 0.06213 0.51888 0.48084 0.0
O40 O 0.10814 0.52479 0.48932 0.0
H41 H 0.04116 0.6702 0.48143 0.0
H42 H 0.17206 0.60884 0.50949 0.0
O43 O 0.01254 0.63293 0.53794 0.0
H44 H 0.16752 0.54052 0.60507 0.0
H45 H 0.19278 0.67671 0.47602 0.0
O46 O 0.95128 0.05951 0.24369 0.0
Cd47 Cd 0.01847 0.04509 0.26405 0.0
Cd48 Cd 0.02823 0.13848 0.26186 0.0
O49 O 0.9629 0.13211 0.23773 0.0
O50 O 0.01438 0.97929 0.27117 0.0
O51 O 0.02843 0.03129 0.30707 0.0
C52 C 0.02345 0.98906 0.29877 0.0
C53 C 0.03078 0.19207 0.30134 0.0
C54 C 0.93675 0.09693 0.23362 0.0
C55 C 0.10328 0.08141 0.23277 0.0
O56 O 0.09051 0.12144 0.24063 0.0
O57 O 0.07871 0.04762 0.23941 0.0
O58 O 0.03227 0.2039 0.27459 0.0
O59 O 0.02906 0.1493 0.30582 0.0
O60 O 0.96658 0.11073 0.78963 0.0
Cd61 Cd 0.02974 0.13198 0.77238 0.0
Cd62 Cd 0.047 0.03627 0.764 0.0
O63 O 0.98579 0.03803 0.78799 0.0
O64 O 0.02214 0.19829 0.76728 0.0
O65 O 0.03433 0.14896 0.73034 0.0
C66 C 0.02915 0.19059 0.73978 0.0
C67 C 0.04609 0.97391 0.72981 0.0
C68 C 0.9573 0.07014 0.79528 0.0
C69 C 0.12365 0.09391 0.79824 0.0
O70 O 0.11316 0.05634 0.78452 0.0
O71 O 0.09377 0.12682 0.79764 0.0
O72 O 0.05601 0.9696 0.75745 0.0
O73 O 0.03848 1.01434 0.72107 0.0
C74 C 0.38957 0.02839 0.1031 0.0
C75 C 0.38444 0.99496 0.08008 0.0
C76 C 0.35415 0.0342 0.12364 0.0
C77 C 0.31235 1.00693 0.12146 0.0
C78 C 0.30801 0.97258 0.09899 0.0
C79 C 0.3436 0.96666 0.0785 0.0
C80 C 0.27293 1.01279 0.14231 0.0
C81 C 0.26505 0.05161 0.15828 0.0
C82 C 0.22439 0.0582 0.17819 0.0
C83 C 0.20929 0.10251 0.18592 0.0
C84 C 0.17052 0.11024 0.20401 0.0
C85 C 0.14607 0.07372 0.2149 0.0
H86 H 0.21237 0.98708 0.18547 0.0
C87 C 0.16205 0.0294 0.20785 0.0
C88 C 0.20087 0.02169 0.18987 0.0
H89 H 0.14448 1.00045 0.21617 0.0
H90 H 0.42125 0.04994 0.1054 0.0
H91 H 0.36012 0.0598 0.14126 0.0
H92 H 0.2765 0.95072 0.09694 0.0
H93 H 0.33852 0.9407 0.061 0.0
H94 H 0.24793 0.98478 0.14305 0.0
H95 H 0.28742 0.08094 0.15553 0.0
H96 H 0.22705 0.13133 0.17756 0.0
H97 H 0.15932 0.14482 0.20908 0.0
C98 C 0.11575 0.46268 0.6257 0.0
C99 C 0.10322 0.46405 0.59543 0.0
C100 C 0.1071 0.42378 0.64082 0.0
C101 C 0.0856 0.38532 0.62598 0.0
C102 C 0.07483 0.38617 0.59555 0.0
C103 C 0.08326 0.42509 0.58048 0.0
C104 C 0.07449 0.34363 0.64132 0.0
C105 C 0.06523 0.34414 0.67005 0.0
C106 C 0.05315 0.30336 0.68615 0.0
C107 C 0.03519 0.31012 0.71422 0.0
C108 C 0.02589 0.27344 0.73112 0.0
C109 C 0.03435 0.22883 0.72041 0.0
H110 H 0.07538 0.25149 0.6539 0.0
C111 C 0.05123 0.22174 0.69206 0.0
C112 C 0.06077 0.25856 0.67512 0.0
H113 H 0.05855 0.1878 0.68328 0.0
H114 H 0.13119 0.49202 0.63789 0.0
H115 H 0.11754 0.42403 0.66407 0.0
H116 H 0.05899 0.35688 0.58343 0.0
H117 H 0.07407 0.42465 0.55707 0.0
H118 H 0.07117 0.3123 0.62793 0.0
H119 H 0.06484 0.37645 0.68248 0.0
H120 H 0.02894 0.34406 0.72339 0.0
H121 H 0.01293 0.2802 0.75287 0.0
C122 C 0.6413 0.09417 0.08746 0.0
C123 C 0.61856 0.05177 0.08329 0.0
C124 C 0.6757 0.10249 0.11103 0.0
C125 C 0.68747 0.06855 0.13092 0.0
C126 C 0.66307 0.02705 0.12729 0.0
C127 C 0.6294 1.01861 0.10369 0.0
C128 C 0.72546 0.07393 0.15537 0.0
C129 C 0.7637 0.10196 0.15524 0.0
C130 C 0.8055 0.10103 0.17744 0.0
C131 C 0.83471 0.13962 0.1825 0.0
C132 C 0.87646 0.13878 0.20147 0.0
C133 C 0.89033 0.09902 0.21553 0.0
H134 H 0.79854 0.03043 0.18791 0.0
C135 C 0.86077 0.06054 0.21076 0.0
C136 C 0.81897 0.06144 0.1919 0.0
H137 H 0.87051 0.02926 0.22103 0.0
H138 H 0.63336 0.12047 0.07218 0.0
H139 H 0.69276 0.13538 0.11354 0.0
H140 H 0.67103 1.00044 0.14236 0.0
H141 H 0.61207 0.98575 0.10135 0.0
H142 H 0.72344 0.05123 0.17321 0.0
H143 H 0.76578 0.12534 0.13779 0.0
H144 H 0.82553 0.1704 0.17146 0.0
H145 H 0.89846 0.16902 0.20452 0.0
C146 C 0.988 0.67775 0.61151 0.0
C147 C 0.99026 0.67586 0.58076 0.0
C148 C 0.98642 0.71943 0.62736 0.0
C149 C 0.98721 0.76025 0.61283 0.0
C150 C 0.98531 0.75835 0.58197 0.0
C151 C 0.98709 0.71661 0.56607 0.0
C152 C 0.99177 0.80497 0.62933 0.0
C153 C 0.01771 0.80999 0.65533 0.0
C154 C 0.02538 0.85348 0.67303 0.0
C155 C 0.04576 0.85123 0.70187 0.0
C156 C 0.05339 0.8904 0.71988 0.0
C157 C 0.04116 0.93317 0.7095 0.0
H158 H -0.00084 0.90005 0.64008 0.0
C159 C 0.02186 0.93587 0.6804 0.0
C160 C 0.01398 0.89643 0.6623 0.0
H161 H 0.01208 0.96836 0.67176 0.0
H162 H 0.98969 0.64709 0.62354 0.0
H163 H 0.9857 0.71953 0.65107 0.0
H164 H 0.98499 0.78925 0.57019 0.0
H165 H 0.98843 0.71646 0.54238 0.0
H166 H 0.97565 0.83414 0.61898 0.0
H167 H 0.03484 0.78018 0.66446 0.0
H168 H 0.05532 0.81884 0.71076 0.0
H169 H 0.06844 0.88699 0.74214 0.0
C170 C 0.44651 0.12369 0.9173 0.0
C171 C 0.4436 0.12238 0.94793 0.0
C172 C 0.40471 0.1302 0.89908 0.0
C173 C 0.35916 0.1358 0.91115 0.0
C174 C 0.35685 0.13815 0.94185 0.0
C175 C 0.39857 0.13113 0.96008 0.0
C176 C 0.31335 0.13737 0.89233 0.0
C177 C 0.30723 0.1129 0.8666 0.0
C178 C 0.26013 0.10939 0.849 0.0
C179 C 0.25079 0.07039 0.83069 0.0
C180 C 0.20658 0.06527 0.81421 0.0
C181 C 0.17089 0.09942 0.81537 0.0
H182 H 0.23114 0.17502 0.86301 0.0
C183 C 0.18068 0.13896 0.8332 0.0
C184 C 0.22477 0.14391 0.84983 0.0
H185 H 0.15418 0.16613 0.83445 0.0
H186 H 0.48065 0.11746 0.90719 0.0
H187 H 0.408 0.12981 0.87554 0.0
H188 H 0.32229 0.14311 0.95171 0.0
H189 H 0.39512 0.13068 0.98359 0.0
H190 H 0.28262 0.15519 0.9014 0.0
H191 H 0.33682 0.0915 0.85924 0.0
H192 H 0.27754 0.04341 0.82944 0.0
H193 H 0.20043 0.03452 0.80059 0.0
C194 C 0.08242 0.44537 0.45517 0.0
C195 C 0.04832 0.48008 0.46029 0.0
C196 C 0.07137 0.40919 0.43513 0.0
C197 C 0.02583 0.40669 0.41959 0.0
C198 C 0.99157 0.44129 0.42469 0.0
C199 C 0.00249 0.47746 0.44511 0.0
C200 C 0.01504 0.37029 0.39641 0.0
C201 C 0.03558 0.32874 0.39718 0.0
C202 C 0.03078 0.29396 0.37245 0.0
C203 C 0.0374 0.24804 0.37827 0.0
C204 C 0.03676 0.21474 0.35528 0.0
C205 C 0.03039 0.22683 0.32592 0.0
H206 H 0.02005 0.34105 0.33758 0.0
C207 C 0.02375 0.27278 0.32008 0.0
C208 C 0.02384 0.30597 0.34305 0.0
H209 H 0.01876 0.28326 0.29769 0.0
H210 H 0.11811 0.44628 0.46647 0.0
H211 H 0.09933 0.38407 0.43121 0.0
H212 H 0.9564 0.44046 0.41275 0.0
H213 H 0.97555 0.50378 0.4485 0.0
H214 H 0.98961 0.37814 0.37825 0.0
H215 H 0.05703 0.31956 0.41675 0.0
H216 H 0.0434 0.23791 0.4007 0.0
H217 H 0.04205 0.17965 0.36051 0.0
C218 C 0.67506 0.98258 0.91564 0.0
C219 C 0.65584 1.0158 0.93488 0.0
C220 C 0.71423 0.99245 0.89892 0.0
C221 C 0.73482 0.0361 0.90086 0.0
C222 C 0.71604 0.06894 0.92049 0.0
C223 C 0.67705 0.05904 0.93722 0.0
C224 C 0.77622 0.04889 0.88343 0.0
C225 C 0.79058 0.02494 0.85949 0.0
C226 C 0.83259 0.03801 0.84282 0.0
C227 C 0.85858 1.00383 0.82803 0.0
C228 C 0.89877 1.01439 0.8125 0.0
C229 C 0.91351 0.0596 0.81096 0.0
H230 H 0.82655 0.11085 0.8512 0.0
C231 C 0.88665 0.09407 0.82504 0.0
C232 C 0.84663 0.08342 0.84087 0.0
H233 H 0.89684 0.12925 0.82413 0.0
H234 H 0.66003 0.94878 0.91368 0.0
H235 H 0.72828 0.96549 0.88489 0.0
H236 H 0.73117 0.10275 0.92264 0.0
H237 H 0.66286 0.08574 0.95145 0.0
H238 H 0.79551 0.07971 0.89073 0.0
H239 H 0.77228 0.99374 0.85206 0.0
H240 H 0.84825 0.96865 0.82888 0.0
H241 H 0.91834 0.98697 0.80172 0.0
C242 C 0.0632 0.7307 0.43768 0.0
C243 C 0.10771 0.72451 0.45375 0.0
C244 C 0.05546 0.76815 0.42053 0.0
C245 C 0.09232 0.80032 0.41861 0.0
C246 C 0.13672 0.79439 0.43479 0.0
C247 C 0.14447 0.75682 0.45204 0.0
C248 C 0.08514 0.84072 0.4005 0.0
C249 C 0.05315 0.84146 0.37695 0.0
C250 C 0.04582 0.88062 0.35788 0.0
C251 C 0.02586 0.87229 0.3291 0.0
C252 C 0.01812 0.90762 0.3102 0.0
C253 C 0.02956 0.95244 0.31971 0.0
H254 H 0.07076 0.93361 0.38996 0.0
C255 C 0.04846 0.96118 0.34875 0.0
C256 C 0.05661 0.92561 0.36768 0.0
H257 H 0.05752 0.99538 0.35674 0.0
H258 H 0.03411 0.70648 0.4382 0.0
H259 H 0.02015 0.77195 0.40925 0.0
H260 H 0.16563 0.81883 0.43399 0.0
H261 H 0.17893 0.75355 0.4644 0.0
H262 H 0.10867 0.86959 0.4059 0.0
H263 H 0.03304 0.81095 0.37005 0.0
H264 H 0.01671 0.83813 0.32102 0.0
H265 H 0.00331 0.89965 0.28803 0.0
loop_
_geom_bond_atom_site_label_1
_geom_bond_atom_site_label_2
_geom_bond_distance
_geom_bond_site_symmetry_2
_ccdc_geom_bond_type
Cu0 N1 1.999 1_554 S
Cu0 O6 1.974 . S
Cu0 N11 1.985 . S
Cu0 O20 1.959 1_554 S
N1 Cu0 1.999 1_556 S
N1 C3 1.263 . S
N1 C5 1.389 . S
N2 C3 1.358 . S
N2 C4 1.400 . S
C3 N1 1.263 . S
C3 N2 1.358 . S
C3 H9 0.930 . S
C4 N2 1.400 . S
C4 C5 1.351 . S
C4 H21 0.930 . S
C5 N1 1.389 . S
C5 C4 1.351 . S
C5 H10 0.930 . S
O6 Cu0 1.974 . S
O6 C16 1.282 . S
C7 O8 1.261 . S
C7 O20 1.251 . S
O8 C7 1.261 . S
H9 C3 0.930 . S
H10 C5 0.930 . S
N11 Cu0 1.985 . S
N11 C13 1.335 . S
N11 C14 1.390 . S
N12 C13 1.345 . S
N12 C15 1.336 . S
C13 N11 1.335 . S
C13 N12 1.345 . S
C13 H18 0.930 . S
C14 N11 1.390 . S
C14 C15 1.346 . S
C14 H19 0.930 . S
C15 N12 1.336 . S
C15 C14 1.346 . S
C15 H22 0.929 . S
C16 O6 1.282 . S
C16 O17 1.216 . S
O17 C16 1.216 . S
H18 C13 0.930 . S
H19 C14 0.930 . S
O20 Cu0 1.959 1_556 S
O20 C7 1.251 . S
H21 C4 0.930 . S
H22 C15 0.929 . S
Cu23 N24 1.999 . S
Cu23 O29 1.974 . S
Cu23 N34 1.985 . S
Cu23 O43 1.959 . S
N24 Cu23 1.999 . S
N24 C26 1.263 . S
N24 C28 1.389 1_455 S
N25 C26 1.358 . S
N25 C27 1.400 1_455 S
C26 N24 1.263 . S
C26 N25 1.358 . S
C26 H32 0.930 . S
C27 N25 1.400 1_655 S
C27 C28 1.351 . S
C27 H44 0.930 . S
C28 N24 1.389 1_655 S
C28 C27 1.351 . S
C28 H33 0.930 . S
O29 Cu23 1.974 . S
O29 C39 1.282 . S
C30 O31 1.261 . S
C30 O43 1.251 . S
O31 C30 1.261 . S
H32 C26 0.930 . S
H33 C28 0.930 . S
N34 Cu23 1.985 . S
N34 C36 1.335 . S
N34 C37 1.390 . S
N35 C36 1.345 . S
N35 C38 1.336 . S
C36 N34 1.335 . S
C36 N35 1.345 . S
C36 H41 0.931 . S
C37 N34 1.390 . S
C37 C38 1.346 . S
C37 H42 0.930 . S
C38 N35 1.336 . S
C38 C37 1.346 . S
C38 H45 0.929 . S
C39 O29 1.282 . S
C39 O40 1.216 . S
O40 C39 1.216 . S
H41 C36 0.931 . S
H42 C37 0.930 . S
O43 Cu23 1.959 . S
O43 C30 1.251 . S
H44 C27 0.930 . S
H45 C38 0.929 . S
O46 Cd47 2.224 . S
O46 C54 1.303 1_465 S
Cd47 O46 2.224 . S
Cd47 O50 2.297 . S
Cd47 O51 2.439 1_565 S
Cd47 O57 2.240 1_565 S
Cd48 O49 2.240 1_455 S
Cd48 O56 2.223 . S
Cd48 O58 2.297 . S
Cd48 O59 2.439 . S
O49 Cd48 2.240 1_655 S
O49 C54 1.279 . S
O50 Cd47 2.297 . S
O50 C52 1.247 . S
O51 Cd47 2.439 1_545 S
O51 C52 1.192 1_545 S
C52 O50 1.247 . S
C52 O51 1.192 1_565 S
C53 O58 1.247 . S
C53 O59 1.208 . S
C54 O46 1.303 1_645 S
C54 O49 1.279 . S
C55 O56 1.315 . S
C55 O57 1.279 . S
O56 Cd48 2.223 . S
O56 C55 1.315 . S
O57 Cd47 2.240 1_545 S
O57 C55 1.279 . S
O58 Cd48 2.297 . S
O58 C53 1.247 . S
O59 Cd48 2.439 . S
O59 C53 1.208 . S
O60 Cd61 2.223 . S
O60 C68 1.315 . S
Cd61 O60 2.223 . S
Cd61 O64 2.297 . S
Cd61 O65 2.439 . S
Cd61 O71 2.240 . S
Cd62 O63 2.240 1_565 S
Cd62 O70 2.223 . S
Cd62 O72 2.297 . S
Cd62 O73 2.439 . S
O63 Cd62 2.240 1_545 S
O63 C68 1.279 . S
O64 Cd61 2.297 . S
O64 C66 1.247 . S
O65 Cd61 2.439 . S
O65 C66 1.208 . S
C66 O64 1.247 . S
C66 O65 1.208 . S
C67 O72 1.247 . S
C67 O73 1.208 . S
C68 O60 1.315 . S
C68 O63 1.279 . S
C69 O70 1.315 1_545 S
C69 O71 1.279 . S
O70 Cd62 2.223 . S
O70 C69 1.315 1_565 S
O71 Cd61 2.240 . S
O71 C69 1.279 . S
O72 Cd62 2.297 . S
O72 C67 1.247 . S
O73 Cd62 2.439 . S
O73 C67 1.208 . S
C74 C75 1.386 . S
C74 C76 1.383 . S
C74 H90 0.951 . S
C75 C74 1.386 . S
C75 C79 1.383 . S
C76 C74 1.383 . S
C76 C77 1.402 . S
C76 H91 0.951 . S
C77 C76 1.402 . S
C77 C78 1.375 . S
C77 C80 1.481 . S
C78 C77 1.375 . S
C78 C79 1.367 . S
C78 H92 0.951 . S
C79 C75 1.383 . S
C79 C78 1.367 . S
C79 H93 0.950 . S
C80 C77 1.481 . S
C80 C81 1.297 . S
C80 H94 0.950 . S
C81 C80 1.297 . S
C81 C82 1.479 . S
C81 H95 0.950 . S
C82 C81 1.479 . S
C82 C83 1.375 . S
C82 C88 1.404 . S
C83 C82 1.375 . S
C83 C84 1.369 . S
C83 H96 0.950 . S
C84 C83 1.369 . S
C84 C85 1.392 . S
C84 H97 0.951 . S
C85 C84 1.392 . S
C85 C87 1.384 . S
H86 C88 0.949 . S
C87 C85 1.384 . S
C87 C88 1.385 . S
C87 H89 0.950 . S
C88 C82 1.404 . S
C88 H86 0.949 . S
C88 C87 1.385 . S
H89 C87 0.950 . S
H90 C74 0.951 . S
H91 C76 0.951 . S
H92 C78 0.951 . S
H93 C79 0.950 . S
H94 C80 0.950 . S
H95 C81 0.950 . S
H96 C83 0.950 . S
H97 C84 0.951 . S
C98 C99 1.386 1_655 S
C98 C100 1.383 . S
C98 H114 0.951 . S
C99 C98 1.386 1_455 S
C99 C103 1.383 . S
C100 C98 1.383 . S
C100 C101 1.402 1_655 S
C100 H115 0.951 . S
C101 C100 1.402 1_455 S
C101 C102 1.375 . S
C101 C104 1.481 . S
C102 C101 1.375 . S
C102 C103 1.367 . S
C102 H116 0.951 . S
C103 C99 1.383 . S
C103 C102 1.367 . S
C103 H117 0.950 . S
C104 C101 1.481 . S
C104 C105 1.297 . S
C104 H118 0.950 . S
C105 C104 1.297 . S
C105 C106 1.479 . S
C105 H119 0.950 1_455 S
C106 C105 1.479 . S
C106 C107 1.375 1_455 S
C106 C112 1.404 . S
C107 C106 1.375 1_655 S
C107 C108 1.369 . S
C107 H120 0.950 . S
C108 C107 1.369 . S
C108 C109 1.392 1_655 S
C108 H121 0.951 . S
C109 C108 1.392 1_455 S
C109 C111 1.384 . S
H110 C112 0.949 . S
C111 C109 1.384 . S
C111 C112 1.385 . S
C111 H113 0.950 . S
C112 C106 1.404 . S
C112 H110 0.949 . S
C112 C111 1.385 . S
H113 C111 0.950 . S
H114 C98 0.951 . S
H115 C100 0.951 . S
H116 C102 0.951 . S
H117 C103 0.950 . S
H118 C104 0.950 . S
H119 C105 0.950 1_655 S
H120 C107 0.950 . S
H121 C108 0.951 . S
C122 C123 1.386 . S
C122 C124 1.383 . S
C122 H138 0.951 . S
C123 C122 1.386 . S
C123 C127 1.383 . S
C124 C122 1.383 . S
C124 C125 1.402 . S
C124 H139 0.951 . S
C125 C124 1.402 . S
C125 C126 1.375 . S
C125 C128 1.481 . S
C126 C125 1.375 . S
C126 C127 1.367 . S
C126 H140 0.951 . S
C127 C123 1.383 . S
C127 C126 1.367 . S
C127 H141 0.950 . S
C128 C125 1.481 . S
C128 C129 1.297 . S
C128 H142 0.950 . S
C129 C128 1.297 . S
C129 C130 1.479 . S
C129 H143 0.950 . S
C130 C129 1.479 . S
C130 C131 1.375 . S
C130 C136 1.404 . S
C131 C130 1.375 . S
C131 C132 1.369 . S
C131 H144 0.950 . S
C132 C131 1.369 . S
C132 C133 1.392 . S
C132 H145 0.951 . S
C133 C132 1.392 . S
C133 C135 1.384 . S
H134 C136 0.949 . S
C135 C133 1.384 . S
C135 C136 1.385 . S
C135 H137 0.950 . S
C136 C130 1.404 . S
C136 H134 0.949 . S
C136 C135 1.385 . S
H137 C135 0.950 . S
H138 C122 0.951 . S
H139 C124 0.951 . S
H140 C126 0.951 . S
H141 C127 0.950 . S
H142 C128 0.950 . S
H143 C129 0.950 . S
H144 C131 0.950 . S
H145 C132 0.951 . S
C146 C147 1.386 . S
C146 C148 1.383 . S
C146 H162 0.951 . S
C147 C146 1.386 . S
C147 C151 1.383 . S
C148 C146 1.383 . S
C148 C149 1.402 . S
C148 H163 0.951 . S
C149 C148 1.402 . S
C149 C150 1.375 . S
C149 C152 1.481 . S
C150 C149 1.375 . S
C150 C151 1.367 . S
C150 H164 0.951 1_455 S
C151 C147 1.383 . S
C151 C150 1.367 . S
C151 H165 0.950 1_455 S
C152 C149 1.481 . S
C152 C153 1.297 . S
C152 H166 0.950 . S
C153 C152 1.297 . S
C153 C154 1.479 . S
C153 H167 0.950 . S
C154 C153 1.479 . S
C154 C155 1.375 . S
C154 C160 1.404 . S
C155 C154 1.375 . S
C155 C156 1.369 . S
C155 H168 0.950 . S
C156 C155 1.369 . S
C156 C157 1.392 . S
C156 H169 0.951 . S
C157 C156 1.392 . S
C157 C159 1.384 . S
H158 C160 0.949 . S
C159 C157 1.384 . S
C159 C160 1.385 . S
C159 H161 0.950 . S
C160 C154 1.404 . S
C160 H158 0.949 . S
C160 C159 1.385 . S
H161 C159 0.950 . S
H162 C146 0.951 . S
H163 C148 0.951 . S
H164 C150 0.951 1_655 S
H165 C151 0.950 1_655 S
H166 C152 0.950 . S
H167 C153 0.950 . S
H168 C155 0.950 . S
H169 C156 0.951 . S
C170 C171 1.386 . S
C170 C172 1.383 . S
C170 H186 0.951 1_545 S
C171 C170 1.386 . S
C171 C175 1.383 . S
C172 C170 1.383 . S
C172 C173 1.402 . S
C172 H187 0.951 1_545 S
C173 C172 1.402 . S
C173 C174 1.375 . S
C173 C176 1.481 . S
C174 C173 1.375 . S
C174 C175 1.367 . S
C174 H188 0.951 . S
C175 C171 1.383 . S
C175 C174 1.367 . S
C175 H189 0.950 . S
C176 C173 1.481 . S
C176 C177 1.297 . S
C176 H190 0.950 . S
C177 C176 1.297 . S
C177 C178 1.479 . S
C177 H191 0.950 1_545 S
C178 C177 1.479 . S
C178 C179 1.375 1_545 S
C178 C184 1.404 . S
C179 C178 1.375 1_565 S
C179 C180 1.369 . S
C179 H192 0.950 . S
C180 C179 1.369 . S
C180 C181 1.392 1_565 S
C180 H193 0.951 . S
C181 C180 1.392 1_545 S
C181 C183 1.384 . S
H182 C184 0.949 . S
C183 C181 1.384 . S
C183 C184 1.385 . S
C183 H185 0.950 . S
C184 C178 1.404 . S
C184 H182 0.949 . S
C184 C183 1.385 . S
H185 C183 0.950 . S
H186 C170 0.951 1_565 S
H187 C172 0.951 1_565 S
H188 C174 0.951 . S
H189 C175 0.950 . S
H190 C176 0.950 . S
H191 C177 0.950 1_565 S
H192 C179 0.950 . S
H193 C180 0.951 . S
C194 C195 1.386 . S
C194 C196 1.383 . S
C194 H210 0.951 . S
C195 C194 1.386 . S
C195 C199 1.383 . S
C196 C194 1.383 . S
C196 C197 1.402 . S
C196 H211 0.951 . S
C197 C196 1.402 . S
C197 C198 1.375 . S
C197 C200 1.481 . S
C198 C197 1.375 . S
C198 C199 1.367 . S
C198 H212 0.951 1_455 S
C199 C195 1.383 . S
C199 C198 1.367 . S
C199 H213 0.946 1_455 S
C200 C197 1.481 . S
C200 C201 1.297 . S
C200 H214 0.950 . S
C201 C200 1.297 . S
C201 C202 1.479 . S
C201 H215 0.950 . S
C202 C201 1.479 . S
C202 C203 1.375 . S
C202 C208 1.404 . S
C203 C202 1.375 . S
C203 C204 1.369 . S
C203 H216 0.950 . S
C204 C203 1.369 . S
C204 C205 1.392 . S
C204 H217 0.951 . S
C205 C204 1.392 . S
C205 C207 1.384 . S
H206 C208 0.949 . S
C207 C205 1.384 . S
C207 C208 1.385 . S
C207 H209 0.950 . S
C208 C202 1.404 . S
C208 H206 0.949 . S
C208 C207 1.385 . S
H209 C207 0.950 . S
H210 C194 0.951 . S
H211 C196 0.951 . S
H212 C198 0.951 1_655 S
H213 C199 0.946 1_655 S
H214 C200 0.950 . S
H215 C201 0.950 . S
H216 C203 0.950 . S
H217 C204 0.951 . S
C218 C219 1.386 . S
C218 C220 1.383 . S
C218 H234 0.951 . S
C219 C218 1.386 . S
C219 C223 1.383 . S
C220 C218 1.383 . S
C220 C221 1.402 . S
C220 H235 0.951 . S
C221 C220 1.402 . S
C221 C222 1.375 . S
C221 C224 1.481 . S
C222 C221 1.375 . S
C222 C223 1.367 . S
C222 H236 0.951 . S
C223 C219 1.383 . S
C223 C222 1.367 . S
C223 H237 0.950 . S
C224 C221 1.481 . S
C224 C225 1.297 . S
C224 H238 0.950 . S
C225 C224 1.297 . S
C225 C226 1.479 . S
C225 H239 0.950 . S
C226 C225 1.479 . S
C226 C227 1.375 . S
C226 C232 1.404 . S
C227 C226 1.375 . S
C227 C228 1.369 . S
C227 H240 0.950 . S
C228 C227 1.369 . S
C228 C229 1.392 . S
C228 H241 0.951 . S
C229 C228 1.392 . S
C229 C231 1.384 . S
H230 C232 0.949 . S
C231 C229 1.384 . S
C231 C232 1.385 . S
C231 H233 0.950 . S
C232 C226 1.404 . S
C232 H230 0.949 . S
C232 C231 1.385 . S
H233 C231 0.950 . S
H234 C218 0.951 . S
H235 C220 0.951 . S
H236 C222 0.951 . S
H237 C223 0.950 . S
H238 C224 0.950 . S
H239 C225 0.950 . S
H240 C227 0.950 . S
H241 C228 0.951 . S
C242 C243 1.386 1_655 S
C242 C244 1.383 . S
C242 H258 0.951 . S
C243 C242 1.386 1_455 S
C243 C247 1.383 . S
C244 C242 1.383 . S
C244 C245 1.402 1_655 S
C244 H259 0.951 . S
C245 C244 1.402 1_455 S
C245 C246 1.375 . S
C245 C248 1.481 . S
C246 C245 1.375 . S
C246 C247 1.367 . S
C246 H260 0.951 . S
C247 C243 1.383 . S
C247 C246 1.367 . S
C247 H261 0.950 . S
C248 C245 1.481 . S
C248 C249 1.297 1_455 S
C248 H262 0.950 . S
C249 C248 1.297 1_655 S
C249 C250 1.479 . S
C249 H263 0.950 . S
C250 C249 1.479 . S
C250 C251 1.375 . S
C250 C256 1.404 1_655 S
C251 C250 1.375 . S
C251 C252 1.369 . S
C251 H264 0.950 . S
C252 C251 1.369 . S
C252 C253 1.392 1_655 S
C252 H265 0.951 . S
C253 C252 1.392 1_455 S
C253 C255 1.384 . S
H254 C256 0.949 . S
C255 C253 1.384 . S
C255 C256 1.385 . S
C255 H257 0.950 . S
C256 C250 1.404 1_455 S
C256 H254 0.949 . S
C256 C255 1.385 . S
H257 C255 0.950 . S
H258 C242 0.951 . S
H259 C244 0.951 . S
H260 C246 0.951 . S
H261 C247 0.950 . S
H262 C248 0.950 . S
H263 C249 0.950 . S
H264 C251 0.950 . S
H265 C252 0.951 . S
C85 C55 1.535 . S
C75 N12 1.525 . S
C109 C66 1.560 . S
C99 N25 1.561 . S
C133 C54 1.541 . S
C123 C16 1.526 . S
C157 C67 1.559 . S
C147 C30 1.593 . S
C181 C69 1.580 . S
C171 C7 1.593 . S
C205 C53 1.465 . S
C195 C39 1.539 . S
C229 C68 1.561 1_655 S
C219 N2 1.520 . S
C243 N35 1.524 . S
C253 C52 1.526 . S
