# Generated by pormake.
# Topology wbl, (4,4)-cn, num edge types: 1
# Building blocks:
#     Node 0, Type 0, BuildingBlock: MUDLON_clean_sbu_0, # of connection points: 4
#     Node 1, Type 0, BuildingBlock: MUDLON_clean_sbu_0, # of connection points: 4
#     Node 2, Type 0, BuildingBlock: MUDLON_clean_sbu_0, # of connection points: 4
#     Node 3, Type 0, BuildingBlock: MUDLON_clean_sbu_0, # of connection points: 4
#     Node 4, Type 0, BuildingBlock: MUDLON_clean_sbu_0, # of connection points: 4
#     Node 5, Type 0, BuildingBlock: MUDLON_clean_sbu_0, # of connection points: 4
#     Node 6, Type 0, BuildingBlock: MUDLON_clean_sbu_0, # of connection points: 4
#     Node 7, Type 0, BuildingBlock: MUDLON_clean_sbu_0, # of connection points: 4
#     Node 8, Type 1, BuildingBlock: QUQFOY_clean_sbu_1, # of connection points: 4
#     Node 9, Type 1, BuildingBlock: QUQFOY_clean_sbu_1, # of connection points: 4
#     Node 10, Type 1, BuildingBlock: QUQFOY_clean_sbu_1, # of connection points: 4
#     Node 11, Type 1, BuildingBlock: QUQFOY_clean_sbu_1, # of connection points: 4
#     Node 12, Type 1, BuildingBlock: QUQFOY_clean_sbu_1, # of connection points: 4
#     Node 13, Type 1, BuildingBlock: QUQFOY_clean_sbu_1, # of connection points: 4
#     Node 14, Type 1, BuildingBlock: QUQFOY_clean_sbu_1, # of connection points: 4
#     Node 15, Type 1, BuildingBlock: QUQFOY_clean_sbu_1, # of connection points: 4
#     Edge 16, Type (0, 1), None
#     Edge 17, Type (0, 1), None
#     Edge 18, Type (0, 1), None
#     Edge 19, Type (0, 1), None
#     Edge 20, Type (0, 1), None
#     Edge 21, Type (0, 1), None
#     Edge 22, Type (0, 1), None
#     Edge 23, Type (0, 1), None
#     Edge 24, Type (0, 1), None
#     Edge 25, Type (0, 1), None
#     Edge 26, Type (0, 1), None
#     Edge 27, Type (0, 1), None
#     Edge 28, Type (0, 1), None
#     Edge 29, Type (0, 1), None
#     Edge 30, Type (0, 1), None
#     Edge 31, Type (0, 1), None
#     Edge 32, Type (0, 1), None
#     Edge 33, Type (0, 1), None
#     Edge 34, Type (0, 1), None
#     Edge 35, Type (0, 1), None
#     Edge 36, Type (0, 1), None
#     Edge 37, Type (0, 1), None
#     Edge 38, Type (0, 1), None
#     Edge 39, Type (0, 1), None
#     Edge 40, Type (0, 1), None
#     Edge 41, Type (0, 1), None
#     Edge 42, Type (0, 1), None
#     Edge 43, Type (0, 1), None
#     Edge 44, Type (0, 1), None
#     Edge 45, Type (0, 1), None
#     Edge 46, Type (0, 1), None
#     Edge 47, Type (0, 1), None
# Relax obj value: 0.236
# Max RMSD: 0.257
# Mean RMSD: 0.186
data_MOF--net-wbl--node1-MUDLON_clean_sbu_0--node2-QUQFOY_clean_sbu_1--edge1-none
_symmetry_space_group_name_H-M    P1
_symmetry_Int_Tables_number       1
_symmetry_cell_setting            triclinic
loop_
_symmetry_equiv_pos_as_xyz
'x, y, z'
_cell_length_a     16.378948
_cell_length_b     16.510063
_cell_length_c     35.954717
_cell_angle_alpha  93.522003
_cell_angle_beta   93.126484
_cell_angle_gamma 89.658646
loop_
_atom_site_label
_atom_site_type_symbol
_atom_site_fract_x
_atom_site_fract_y
_atom_site_fract_z
_atom_type_partial_charge
Mg0 Mg 0.20899 0.12689 0.37667 0.0
C1 C 0.22095 0.99504 0.43101 0.0
O2 O 0.26596 0.95741 0.40624 0.0
C3 C 0.04322 0.12779 0.33174 0.0
O4 O 0.03403 0.0569 0.34563 0.0
C5 C 0.31018 0.00607 0.33024 0.0
O6 O 0.23931 0.96892 0.32852 0.0
O7 O 0.31738 0.0748 0.34856 0.0
O8 O 0.17551 0.05317 0.4213 0.0
O9 O 0.21915 0.22364 0.42083 0.0
C10 C 0.14802 0.24836 0.42913 0.0
O11 O 0.08661 0.23184 0.40504 0.0
O12 O 0.11064 0.16521 0.33776 0.0
Mg13 Mg 0.0663 0.70494 0.62666 0.0
C14 C 0.17785 0.7476 0.68705 0.0
O15 O 0.16368 0.81397 0.66945 0.0
C16 C 0.03679 0.56161 0.56708 0.0
O17 O 0.10219 0.58532 0.55125 0.0
C18 C 0.20486 0.78246 0.58814 0.0
O19 O 0.24716 0.72026 0.59982 0.0
O20 O 0.12878 0.78852 0.59373 0.0
O21 O 0.14798 0.68079 0.67337 0.0
O22 O 0.97135 0.75593 0.66035 0.0
C23 C 0.91776 0.70548 0.66851 0.0
O24 O 0.88475 0.65716 0.64152 0.0
O25 O 0.01369 0.5993 0.59647 0.0
Mg26 Mg 0.56708 0.5857 0.87662 0.0
C27 C 0.51094 0.69989 0.93335 0.0
O28 O 0.44572 0.68309 0.91154 0.0
C29 C 0.67771 0.54067 0.81182 0.0
O30 O 0.61994 0.57061 0.78987 0.0
C31 C 0.47613 0.71383 0.83407 0.0
O32 O 0.53741 0.7594 0.84772 0.0
O33 O 0.47506 0.63836 0.83993 0.0
O34 O 0.58006 0.67167 0.92429 0.0
O35 O 0.53685 0.48516 0.90955 0.0
C36 C 0.59006 0.42951 0.91388 0.0
O37 O 0.63559 0.40829 0.88595 0.0
O38 O 0.67279 0.54644 0.84706 0.0
Mg39 Mg 0.66357 0.09549 0.12784 0.0
C40 C 0.74292 0.19632 0.18379 0.0
O41 O 0.79579 0.18024 0.15827 0.0
C42 C 0.57604 0.97595 0.08637 0.0
O43 O 0.65486 0.96018 0.08857 0.0
C44 C 0.80239 0.15889 0.07516 0.0
O45 O 0.85872 0.11536 0.0921 0.0
O46 O 0.72835 0.1549 0.08415 0.0
O47 O 0.66783 0.18023 0.17601 0.0
O48 O 0.68904 0.9959 0.16445 0.0
C49 C 0.73987 0.9913 0.19232 0.0
O50 O 0.80874 0.03176 0.19416 0.0
O51 O 0.55146 0.0437 0.10058 0.0
Mg52 Mg 0.04089 0.67205 0.95753 0.0
C53 C 0.12769 0.7478 0.8963 0.0
O54 O 0.09508 0.81444 0.91088 0.0
C55 C 0.92439 0.56855 0.98845 0.0
O56 O 0.88535 0.63447 0.97881 0.0
C57 C 0.16782 0.7816 1.00116 0.0
O58 O 0.11787 0.83791 0.98917 0.0
O59 O 0.14919 0.70728 0.99395 0.0
O60 O 0.12126 0.68114 0.91197 0.0
O61 O 0.97988 0.62276 0.90559 0.0
C62 C 0.95242 0.66219 0.87829 0.0
O63 O 0.9456 0.74148 0.88199 0.0
O64 O 1.00083 0.56384 0.984 0.0
Mg65 Mg 0.62976 0.51747 0.19566 0.0
C66 C 0.51594 0.59228 0.13247 0.0
O67 O 0.45226 0.55754 0.1453 0.0
C68 C 0.74088 0.46269 0.26216 0.0
O69 O 0.6757 0.47587 0.28135 0.0
C70 C 0.56222 0.66697 0.23535 0.0
O71 O 0.49181 0.63388 0.22398 0.0
O72 O 0.62869 0.63058 0.22822 0.0
O73 O 0.5864 0.58589 0.14863 0.0
O74 O 0.70504 0.48116 0.15025 0.0
C75 C 0.67036 0.43928 0.12317 0.0
O76 O 0.59445 0.41565 0.12523 0.0
O77 O 0.7373 0.47498 0.22755 0.0
Mg78 Mg 0.68937 0.05853 0.449 0.0
C79 C 0.69922 0.19163 0.39566 0.0
O80 O 0.74974 0.22555 0.42141 0.0
C81 C 0.55599 0.03468 0.50922 0.0
O82 O 0.57165 0.10811 0.52388 0.0
C83 C 0.79088 0.18075 0.49522 0.0
O84 O 0.71891 0.21621 0.4958 0.0
O85 O 0.79684 0.10988 0.47969 0.0
O86 O 0.65198 0.1356 0.40413 0.0
O87 O 0.71953 0.96426 0.40791 0.0
C88 C 0.65604 0.92459 0.39632 0.0
O89 O 0.59258 0.92653 0.41706 0.0
O90 O 0.59393 0.00712 0.48127 0.0
Mg91 Mg 0.14473 0.19871 0.70713 0.0
C92 C 0.29439 0.15941 0.64322 0.0
O93 O 0.37057 0.17642 0.65399 0.0
C94 C 0.08808 0.37699 0.73491 0.0
O95 O 0.1445 0.40566 0.71481 0.0
C96 C 0.23821 0.08519 0.75518 0.0
O97 O 0.294 0.1377 0.74761 0.0
O98 O 0.16462 0.09513 0.74247 0.0
O99 O 0.23952 0.17373 0.66657 0.0
O100 O 0.0612 0.20091 0.65934 0.0
C101 C 0.0872 0.25477 0.63894 0.0
O102 O 0.15042 0.2997 0.65069 0.0
O103 O 0.08325 0.30074 0.73819 0.0
O104 O 0.45065 0.79305 0.9753 0.0
Cd105 Cd 0.39203 0.83083 0.02263 0.0
Cd106 Cd 0.5031 0.73009 0.0523 0.0
O107 O 0.52147 0.69157 0.99835 0.0
O108 O 0.28318 0.87007 0.00343 0.0
O109 O 0.29913 0.75621 0.03259 0.0
C110 C 0.25206 0.80428 0.01403 0.0
C111 C 0.50796 0.64063 0.09972 0.0
C112 C 0.49831 0.73263 0.971 0.0
C113 C 0.52157 0.91058 0.07077 0.0
O114 O 0.55241 0.84004 0.06873 0.0
O115 O 0.44912 0.92276 0.05764 0.0
O116 O 0.57266 0.65976 0.08353 0.0
O117 O 0.43838 0.66857 0.08759 0.0
O118 O 0.57312 0.86795 0.34718 0.0
Cd119 Cd 0.50026 0.88534 0.30033 0.0
Cd120 Cd 0.66445 0.8943 0.27686 0.0
O121 O 0.68269 0.93345 0.33235 0.0
O122 O 0.38696 0.88373 0.31945 0.0
O123 O 0.44181 0.9958 0.30199 0.0
C124 C 0.38208 0.96093 0.31659 0.0
C125 C 0.712 0.95566 0.22585 0.0
C126 C 0.64047 0.90297 0.35663 0.0
C127 C 0.56605 0.74727 0.25486 0.0
O128 O 0.63622 0.77513 0.2653 0.0
O129 O 0.50142 0.78895 0.26014 0.0
O130 O 0.76228 0.91938 0.24822 0.0
O131 O 0.63621 0.9622 0.23406 0.0
O132 O 0.28751 0.92602 0.47872 0.0
Cd133 Cd 0.36028 0.92512 0.52625 0.0
Cd134 Cd 0.24725 0.02256 0.55342 0.0
O135 O 0.22773 0.0416 0.49592 0.0
O136 O 0.47469 0.91361 0.5093 0.0
O137 O 0.42755 0.02579 0.5378 0.0
C138 C 0.48513 0.98909 0.52034 0.0
C139 C 0.27603 0.11234 0.6071 0.0
C140 C 0.24234 0.98567 0.47078 0.0
C141 C 0.24529 0.84901 0.57144 0.0
O142 O 0.20365 0.91253 0.56587 0.0
O143 O 0.32016 0.84469 0.56342 0.0
O144 O 0.20275 0.10543 0.592 0.0
O145 O 0.33334 0.0733 0.59045 0.0
O146 O 0.27313 0.80417 0.73131 0.0
Cd147 Cd 0.30065 0.87203 0.78 0.0
Cd148 Cd 0.22575 0.7442 0.80433 0.0
O149 O 0.17318 0.73236 0.75154 0.0
O150 O 0.33599 0.97834 0.76217 0.0
O151 O 0.21736 0.96272 0.78734 0.0
C152 C 0.2652 0.0073 0.76986 0.0
C153 C 0.16208 0.74788 0.85969 0.0
C154 C 0.21286 0.75647 0.72496 0.0
C155 C 0.40232 0.75059 0.81771 0.0
O156 O 0.34184 0.70444 0.80968 0.0
O157 O 0.39601 0.82686 0.81415 0.0
O158 O 0.16866 0.68065 0.83977 0.0
O159 O 0.18547 0.81465 0.84657 0.0
O160 O 0.97942 0.29102 0.59805 0.0
Cd161 Cd 0.95113 0.35183 0.55164 0.0
Cd162 Cd 0.04658 0.25187 0.51996 0.0
O163 O 0.09692 0.25977 0.57413 0.0
O164 O 0.93065 0.46471 0.57015 0.0
O165 O 0.03608 0.42832 0.53633 0.0
C166 C 0.99847 0.48331 0.55606 0.0
C167 C 0.1261 0.25803 0.46807 0.0
C168 C 0.05181 0.2652 0.60184 0.0
C169 C 0.86422 0.22668 0.50855 0.0
O170 O 0.93419 0.19245 0.50939 0.0
O171 O 0.85737 0.3011 0.51909 0.0
O172 O 0.12739 0.19505 0.48761 0.0
O173 O 0.08239 0.31932 0.47902 0.0
O174 O 0.94693 0.54298 0.8385 0.0
Cd175 Cd 0.88995 0.48721 0.79229 0.0
Cd176 Cd 0.95311 0.6036 0.75951 0.0
O177 O 0.93333 0.65892 0.81213 0.0
O178 O 0.7892 0.4482 0.81241 0.0
O179 O 0.79236 0.54912 0.77396 0.0
C180 C 0.7534 0.50872 0.79705 0.0
C181 C 0.92529 0.67353 0.70581 0.0
C182 C 0.94218 0.61963 0.84139 0.0
C183 C 0.02621 0.43296 0.75075 0.0
O184 O 0.03841 0.50932 0.75161 0.0
O185 O 0.95948 0.40596 0.76163 0.0
O186 O 0.98786 0.69163 0.72803 0.0
O187 O 0.87592 0.6184 0.71503 0.0
O188 O 0.7873 0.43397 0.08768 0.0
Cd189 Cd 0.83961 0.36793 0.04555 0.0
Cd190 Cd 0.71021 0.42778 0.00688 0.0
O191 O 0.66782 0.40715 0.05845 0.0
O192 O 0.8912 0.27144 0.06853 0.0
O193 O 0.77473 0.2661 0.03373 0.0
C194 C 0.82622 0.23169 0.05646 0.0
C195 C 0.62612 0.42003 0.9518 0.0
C196 C 0.71053 0.42585 0.0883 0.0
C197 C 0.87682 0.50257 1.00253 0.0
O198 O 0.80026 0.51369 0.00428 0.0
O199 O 0.90911 0.43593 0.01195 0.0
O200 O 0.61568 0.47582 0.97777 0.0
O201 O 0.68025 0.36468 0.95817 0.0
O202 O 0.85046 0.22893 0.22785 0.0
Cd203 Cd 0.8817 0.29254 0.27634 0.0
Cd204 Cd 0.79024 0.18475 0.30193 0.0
O205 O 0.73204 0.20106 0.24967 0.0
O206 O 0.87654 0.40707 0.26204 0.0
O207 O 0.78501 0.34987 0.29562 0.0
C208 C 0.8053 0.40869 0.27607 0.0
C209 C 0.72257 0.19387 0.35708 0.0
C210 C 0.77521 0.21243 0.22217 0.0
C211 C 0.97207 0.16922 0.31461 0.0
O212 O 0.90524 0.13048 0.30802 0.0
O213 O 0.97528 0.24466 0.30909 0.0
O214 O 0.71426 0.13047 0.33432 0.0
O215 O 0.7658 0.25338 0.34761 0.0
loop_
_geom_bond_atom_site_label_1
_geom_bond_atom_site_label_2
_geom_bond_distance
_geom_bond_site_symmetry_2
_ccdc_geom_bond_type
Mg0 O7 2.141 . S
Mg0 O8 2.048 . S
Mg0 O9 2.048 . S
Mg0 O12 2.141 . S
C1 O2 1.313 1_545 S
C1 O8 1.195 . S
O2 C1 1.313 1_565 S
C3 O4 1.245 . S
C3 O12 1.289 . S
O4 C3 1.245 . S
C5 O6 1.245 . S
C5 O7 1.289 1_565 S
O6 C5 1.245 . S
O7 Mg0 2.141 . S
O7 C5 1.289 1_545 S
O8 Mg0 2.048 . S
O8 C1 1.195 . S
O9 Mg0 2.048 . S
O9 C10 1.195 . S
C10 O9 1.195 . S
C10 O11 1.313 . S
O11 C10 1.313 . S
O12 Mg0 2.141 . S
O12 C3 1.289 . S
Mg13 O20 2.141 . S
Mg13 O21 2.048 . S
Mg13 O22 2.048 1_455 S
Mg13 O25 2.141 . S
C14 O15 1.313 . S
C14 O21 1.195 . S
O15 C14 1.313 . S
C16 O17 1.245 . S
C16 O25 1.289 . S
O17 C16 1.245 . S
C18 O19 1.245 . S
C18 O20 1.289 . S
O19 C18 1.245 . S
O20 Mg13 2.141 . S
O20 C18 1.289 . S
O21 Mg13 2.048 . S
O21 C14 1.195 . S
O22 Mg13 2.048 1_655 S
O22 C23 1.193 1_655 S
C23 O22 1.193 1_455 S
C23 O24 1.322 . S
O24 C23 1.322 . S
O25 Mg13 2.141 . S
O25 C16 1.289 . S
Mg26 O33 2.141 . S
Mg26 O34 2.048 . S
Mg26 O35 2.048 . S
Mg26 O38 2.141 . S
C27 O28 1.313 . S
C27 O34 1.195 . S
O28 C27 1.313 . S
C29 O30 1.245 . S
C29 O38 1.289 . S
O30 C29 1.245 . S
C31 O32 1.245 . S
C31 O33 1.289 . S
O32 C31 1.245 . S
O33 Mg26 2.141 . S
O33 C31 1.289 . S
O34 Mg26 2.048 . S
O34 C27 1.195 . S
O35 Mg26 2.048 . S
O35 C36 1.195 . S
C36 O35 1.195 . S
C36 O37 1.313 . S
O37 C36 1.313 . S
O38 Mg26 2.141 . S
O38 C29 1.289 . S
Mg39 O46 2.141 . S
Mg39 O47 2.048 . S
Mg39 O48 2.048 1_545 S
Mg39 O51 2.141 1_545 S
C40 O41 1.313 . S
C40 O47 1.195 . S
O41 C40 1.313 . S
C42 O43 1.245 . S
C42 O51 1.289 . S
O43 C42 1.245 . S
C44 O45 1.245 . S
C44 O46 1.289 . S
O45 C44 1.245 . S
O46 Mg39 2.141 . S
O46 C44 1.289 . S
O47 Mg39 2.048 . S
O47 C40 1.195 . S
O48 Mg39 2.048 1_565 S
O48 C49 1.195 . S
C49 O48 1.195 . S
C49 O50 1.313 . S
O50 C49 1.313 . S
O51 Mg39 2.141 1_565 S
O51 C42 1.289 . S
Mg52 O59 2.141 . S
Mg52 O60 2.048 . S
Mg52 O61 2.048 1_455 S
Mg52 O64 2.141 1_455 S
C53 O54 1.313 . S
C53 O60 1.195 . S
O54 C53 1.313 . S
C55 O56 1.245 . S
C55 O64 1.289 . S
O56 C55 1.245 . S
C57 O58 1.245 . S
C57 O59 1.289 1_554 S
O58 C57 1.245 . S
O59 Mg52 2.141 . S
O59 C57 1.289 1_556 S
O60 Mg52 2.048 . S
O60 C53 1.195 . S
O61 Mg52 2.048 1_655 S
O61 C62 1.195 . S
C62 O61 1.195 . S
C62 O63 1.313 . S
O63 C62 1.313 . S
O64 Mg52 2.141 1_655 S
O64 C55 1.289 . S
Mg65 O72 2.141 . S
Mg65 O73 2.048 . S
Mg65 O74 2.048 . S
Mg65 O77 2.141 . S
C66 O67 1.313 . S
C66 O73 1.195 . S
O67 C66 1.313 . S
C68 O69 1.245 . S
C68 O77 1.289 . S
O69 C68 1.245 . S
C70 O71 1.245 . S
C70 O72 1.289 . S
O71 C70 1.245 . S
O72 Mg65 2.141 . S
O72 C70 1.289 . S
O73 Mg65 2.048 . S
O73 C66 1.195 . S
O74 Mg65 2.048 . S
O74 C75 1.195 . S
C75 O74 1.195 . S
C75 O76 1.313 . S
O76 C75 1.313 . S
O77 Mg65 2.141 . S
O77 C68 1.289 . S
Mg78 O85 2.141 . S
Mg78 O86 2.048 . S
Mg78 O87 2.048 1_545 S
Mg78 O90 2.141 1_545 S
C79 O80 1.313 . S
C79 O86 1.195 . S
O80 C79 1.313 . S
C81 O82 1.245 . S
C81 O90 1.289 1_545 S
O82 C81 1.245 . S
C83 O84 1.245 . S
C83 O85 1.289 . S
O84 C83 1.245 . S
O85 Mg78 2.141 . S
O85 C83 1.289 . S
O86 Mg78 2.048 . S
O86 C79 1.195 . S
O87 Mg78 2.048 1_565 S
O87 C88 1.195 . S
C88 O87 1.195 . S
C88 O89 1.313 1_565 S
O89 C88 1.313 1_545 S
O90 Mg78 2.141 1_565 S
O90 C81 1.289 1_565 S
Mg91 O98 2.141 . S
Mg91 O99 2.048 . S
Mg91 O100 2.048 . S
Mg91 O103 2.141 . S
C92 O93 1.313 . S
C92 O99 1.195 . S
O93 C92 1.313 . S
C94 O95 1.245 . S
C94 O103 1.289 . S
O95 C94 1.245 . S
C96 O97 1.245 . S
C96 O98 1.289 . S
O97 C96 1.245 . S
O98 Mg91 2.141 . S
O98 C96 1.289 . S
O99 Mg91 2.048 . S
O99 C92 1.195 . S
O100 Mg91 2.048 . S
O100 C101 1.195 . S
C101 O100 1.195 . S
C101 O102 1.313 . S
O102 C101 1.313 . S
O103 Mg91 2.141 . S
O103 C94 1.289 . S
O104 Cd105 2.223 1_556 S
O104 C112 1.315 . S
Cd105 O104 2.223 1_554 S
Cd105 O108 2.297 1_554 S
Cd105 O109 2.439 . S
Cd105 O115 2.240 . S
Cd106 O107 2.240 . S
Cd106 O114 2.223 . S
Cd106 O116 2.297 . S
Cd106 O117 2.439 . S
O107 Cd106 2.240 . S
O107 C112 1.279 1_554 S
O108 Cd105 2.297 1_556 S
O108 C110 1.247 1_556 S
O109 Cd105 2.439 . S
O109 C110 1.208 . S
C110 O108 1.247 1_554 S
C110 O109 1.208 . S
C111 O116 1.247 . S
C111 O117 1.208 . S
C112 O104 1.315 . S
C112 O107 1.279 1_556 S
C113 O114 1.315 . S
C113 O115 1.279 . S
O114 Cd106 2.223 . S
O114 C113 1.315 . S
O115 Cd105 2.240 . S
O115 C113 1.279 . S
O116 Cd106 2.297 . S
O116 C111 1.247 . S
O117 Cd106 2.439 . S
O117 C111 1.208 . S
O118 Cd119 2.223 . S
O118 C126 1.315 . S
Cd119 O118 2.223 . S
Cd119 O122 2.297 . S
Cd119 O123 2.439 . S
Cd119 O129 2.240 . S
Cd120 O121 2.240 . S
Cd120 O128 2.223 . S
Cd120 O130 2.297 . S
Cd120 O131 2.439 . S
O121 Cd120 2.240 . S
O121 C126 1.279 . S
O122 Cd119 2.297 . S
O122 C124 1.247 . S
O123 Cd119 2.439 . S
O123 C124 1.208 . S
C124 O122 1.247 . S
C124 O123 1.208 . S
C125 O130 1.247 . S
C125 O131 1.208 . S
C126 O118 1.315 . S
C126 O121 1.279 . S
C127 O128 1.315 . S
C127 O129 1.279 . S
O128 Cd120 2.223 . S
O128 C127 1.315 . S
O129 Cd119 2.240 . S
O129 C127 1.279 . S
O130 Cd120 2.297 . S
O130 C125 1.247 . S
O131 Cd120 2.439 . S
O131 C125 1.208 . S
O132 Cd133 2.223 . S
O132 C140 1.315 . S
Cd133 O132 2.223 . S
Cd133 O136 2.297 . S
Cd133 O137 2.439 1_565 S
Cd133 O143 2.240 . S
Cd134 O135 2.240 . S
Cd134 O142 2.223 1_545 S
Cd134 O144 2.297 . S
Cd134 O145 2.439 . S
O135 Cd134 2.240 . S
O135 C140 1.279 1_545 S
O136 Cd133 2.297 . S
O136 C138 1.247 . S
O137 Cd133 2.439 1_545 S
O137 C138 1.208 1_545 S
C138 O136 1.247 . S
C138 O137 1.208 1_565 S
C139 O144 1.247 . S
C139 O145 1.208 . S
C140 O132 1.315 . S
C140 O135 1.279 1_565 S
C141 O142 1.315 . S
C141 O143 1.279 . S
O142 Cd134 2.223 1_565 S
O142 C141 1.315 . S
O143 Cd133 2.240 . S
O143 C141 1.279 . S
O144 Cd134 2.297 . S
O144 C139 1.247 . S
O145 Cd134 2.439 . S
O145 C139 1.208 . S
O146 Cd147 2.223 . S
O146 C154 1.315 . S
Cd147 O146 2.223 . S
Cd147 O150 2.297 1_565 S
Cd147 O151 2.439 1_565 S
Cd147 O157 2.240 . S
Cd148 O149 2.240 . S
Cd148 O156 2.223 . S
Cd148 O158 2.297 . S
Cd148 O159 2.439 . S
O149 Cd148 2.240 . S
O149 C154 1.279 . S
O150 Cd147 2.297 1_545 S
O150 C152 1.247 . S
O151 Cd147 2.439 1_545 S
O151 C152 1.208 . S
C152 O150 1.247 . S
C152 O151 1.208 . S
C153 O158 1.247 . S
C153 O159 1.208 . S
C154 O146 1.315 . S
C154 O149 1.279 . S
C155 O156 1.315 . S
C155 O157 1.279 . S
O156 Cd148 2.223 . S
O156 C155 1.315 . S
O157 Cd147 2.240 . S
O157 C155 1.279 . S
O158 Cd148 2.297 . S
O158 C153 1.247 . S
O159 Cd148 2.439 . S
O159 C153 1.208 . S
O160 Cd161 2.223 . S
O160 C168 1.315 . S
Cd161 O160 2.223 . S
Cd161 O164 2.297 . S
Cd161 O165 2.439 1_655 S
Cd161 O171 2.240 . S
Cd162 O163 2.240 . S
Cd162 O170 2.223 1_455 S
Cd162 O172 2.297 . S
Cd162 O173 2.439 . S
O163 Cd162 2.240 . S
O163 C168 1.279 1_455 S
O164 Cd161 2.297 . S
O164 C166 1.247 . S
O165 Cd161 2.439 1_455 S
O165 C166 1.208 1_455 S
C166 O164 1.247 . S
C166 O165 1.208 1_655 S
C167 O172 1.247 . S
C167 O173 1.208 . S
C168 O160 1.315 . S
C168 O163 1.279 1_655 S
C169 O170 1.315 . S
C169 O171 1.279 . S
O170 Cd162 2.223 1_655 S
O170 C169 1.315 . S
O171 Cd161 2.240 . S
O171 C169 1.279 . S
O172 Cd162 2.297 . S
O172 C167 1.247 . S
O173 Cd162 2.439 . S
O173 C167 1.208 . S
O174 Cd175 2.223 . S
O174 C182 1.315 . S
Cd175 O174 2.223 . S
Cd175 O178 2.297 . S
Cd175 O179 2.439 . S
Cd175 O185 2.240 . S
Cd176 O177 2.240 . S
Cd176 O184 2.223 1_655 S
Cd176 O186 2.297 . S
Cd176 O187 2.439 . S
O177 Cd176 2.240 . S
O177 C182 1.279 . S
O178 Cd175 2.297 . S
O178 C180 1.247 . S
O179 Cd175 2.439 . S
O179 C180 1.208 . S
C180 O178 1.247 . S
C180 O179 1.208 . S
C181 O186 1.247 . S
C181 O187 1.208 . S
C182 O174 1.315 . S
C182 O177 1.279 . S
C183 O184 1.315 1_655 S
C183 O185 1.279 . S
O184 Cd176 2.223 1_455 S
O184 C183 1.315 1_455 S
O185 Cd175 2.240 . S
O185 C183 1.279 . S
O186 Cd176 2.297 . S
O186 C181 1.247 . S
O187 Cd176 2.439 . S
O187 C181 1.208 . S
O188 Cd189 2.223 . S
O188 C196 1.315 . S
Cd189 O188 2.223 . S
Cd189 O192 2.297 . S
Cd189 O193 2.439 . S
Cd189 O199 2.240 1_554 S
Cd190 O191 2.240 . S
Cd190 O198 2.223 . S
Cd190 O200 2.297 1_554 S
Cd190 O201 2.439 1_554 S
O191 Cd190 2.240 . S
O191 C196 1.279 . S
O192 Cd189 2.297 . S
O192 C194 1.247 . S
O193 Cd189 2.439 . S
O193 C194 1.208 . S
C194 O192 1.247 . S
C194 O193 1.208 . S
C195 O200 1.247 . S
C195 O201 1.208 . S
C196 O188 1.315 . S
C196 O191 1.279 . S
C197 O198 1.315 . S
C197 O199 1.279 1_554 S
O198 Cd190 2.223 . S
O198 C197 1.315 . S
O199 Cd189 2.240 1_556 S
O199 C197 1.279 1_556 S
O200 Cd190 2.297 1_556 S
O200 C195 1.247 . S
O201 Cd190 2.439 1_556 S
O201 C195 1.208 . S
O202 Cd203 2.223 . S
O202 C210 1.315 . S
Cd203 O202 2.223 . S
Cd203 O206 2.297 . S
Cd203 O207 2.439 . S
Cd203 O213 2.240 . S
Cd204 O205 2.240 . S
Cd204 O212 2.223 . S
Cd204 O214 2.297 . S
Cd204 O215 2.439 . S
O205 Cd204 2.240 . S
O205 C210 1.279 . S
O206 Cd203 2.297 . S
O206 C208 1.247 . S
O207 Cd203 2.439 . S
O207 C208 1.208 . S
C208 O206 1.247 . S
C208 O207 1.208 . S
C209 O214 1.247 . S
C209 O215 1.208 . S
C210 O202 1.315 . S
C210 O205 1.279 . S
C211 O212 1.315 1_455 S
C211 O213 1.279 1_455 S
O212 Cd204 2.223 . S
O212 C211 1.315 1_655 S
O213 Cd203 2.240 . S
O213 C211 1.279 1_655 S
O214 Cd204 2.297 . S
O214 C209 1.247 . S
O215 Cd204 2.439 . S
O215 C209 1.208 . S
C124 C5 1.536 . S
C141 C18 1.379 . S
C155 C31 1.459 . S
C42 C113 1.390 . S
C57 C110 1.288 . S
C70 C127 1.116 . S
C138 C81 1.477 1_565 S
C152 C96 1.314 . S
C29 C180 1.258 . S
C194 C44 1.604 . S
C3 C211 1.090 . S
C166 C16 1.283 1_655 S
C83 C169 1.237 . S
C94 C183 1.530 1_455 S
C197 C55 1.392 1_554 S
C68 C208 1.554 . S
C140 C1 1.883 1_565 S
C154 C14 2.211 . S
C27 C112 2.260 . S
C49 C125 1.932 . S
C53 C153 1.406 . S
C111 C66 1.624 . S
C126 C88 1.954 . S
C139 C92 1.412 . S
C195 C36 1.476 . S
C210 C40 1.895 . S
C10 C167 1.806 . S
C181 C23 1.494 1_655 S
C209 C79 1.737 . S
C101 C168 2.462 1_455 S
C182 C62 2.401 . S
C196 C75 1.999 . S
