# Generated by pormake.
# Topology pth, (4,4)-cn, num edge types: 1
# Building blocks:
#     Node 0, Type 0, BuildingBlock: GALJAG_clean_sbu_0, # of connection points: 4
#     Node 1, Type 0, BuildingBlock: GALJAG_clean_sbu_0, # of connection points: 4
#     Node 2, Type 0, BuildingBlock: GALJAG_clean_sbu_0, # of connection points: 4
#     Node 3, Type 1, BuildingBlock: MUDLON_clean_sbu_0, # of connection points: 4
#     Node 4, Type 1, BuildingBlock: MUDLON_clean_sbu_0, # of connection points: 4
#     Node 5, Type 1, BuildingBlock: MUDLON_clean_sbu_0, # of connection points: 4
#     Edge 6, Type (0, 1), BuildingBlock: OJICUG_clean_linker_0, # of connection points: 2
#     Edge 7, Type (0, 1), BuildingBlock: OJICUG_clean_linker_0, # of connection points: 2
#     Edge 8, Type (0, 1), BuildingBlock: OJICUG_clean_linker_0, # of connection points: 2
#     Edge 9, Type (0, 1), BuildingBlock: OJICUG_clean_linker_0, # of connection points: 2
#     Edge 10, Type (0, 1), BuildingBlock: OJICUG_clean_linker_0, # of connection points: 2
#     Edge 11, Type (0, 1), BuildingBlock: OJICUG_clean_linker_0, # of connection points: 2
#     Edge 12, Type (0, 1), BuildingBlock: OJICUG_clean_linker_0, # of connection points: 2
#     Edge 13, Type (0, 1), BuildingBlock: OJICUG_clean_linker_0, # of connection points: 2
#     Edge 14, Type (0, 1), BuildingBlock: OJICUG_clean_linker_0, # of connection points: 2
#     Edge 15, Type (0, 1), BuildingBlock: OJICUG_clean_linker_0, # of connection points: 2
#     Edge 16, Type (0, 1), BuildingBlock: OJICUG_clean_linker_0, # of connection points: 2
#     Edge 17, Type (0, 1), BuildingBlock: OJICUG_clean_linker_0, # of connection points: 2
# Relax obj value: 0.043
# Max RMSD: 0.088
# Mean RMSD: 0.080
data_MOF--net-pth--node1-GALJAG_clean_sbu_0--node2-MUDLON_clean_sbu_0--edge1-OJICUG_clean_linker_0
_symmetry_space_group_name_H-M    P1
_symmetry_Int_Tables_number       1
_symmetry_cell_setting            triclinic
loop_
_symmetry_equiv_pos_as_xyz
'x, y, z'
_cell_length_a     16.881285
_cell_length_b     16.939056
_cell_length_c     42.324164
_cell_angle_alpha  89.989016
_cell_angle_beta   90.037014
_cell_angle_gamma 120.11779
loop_
_atom_site_label
_atom_site_type_symbol
_atom_site_fract_x
_atom_site_fract_y
_atom_site_fract_z
_atom_type_partial_charge
In0 In 0.01828 0.02991 0.10186 0.0
O1 O 0.96688 0.13266 0.10586 0.0
O2 O 0.03285 0.11433 0.14548 0.0
C3 C 0.86065 0.91666 0.07064 0.0
C4 C 0.16663 0.11347 0.06348 0.0
C5 C 0.04427 0.9271 0.14493 0.0
O6 O 0.91452 0.99712 0.0616 0.0
O7 O 0.88625 0.89364 0.09516 0.0
O8 O 0.09145 0.95389 0.11991 0.0
O9 O 0.98495 0.95107 0.14747 0.0
C10 C 0.99193 0.15288 0.13423 0.0
O11 O 0.10035 0.03444 0.05825 0.0
O12 O 0.15937 0.14977 0.08852 0.0
In13 In 0.03265 0.0247 0.43964 0.0
O14 O 0.08796 0.11091 0.39457 0.0
O15 O 0.0536 0.16764 0.43319 0.0
C16 C 0.18777 0.07604 0.47319 0.0
C17 C 0.87625 0.97673 0.47194 0.0
C18 C 0.9855 0.86709 0.40866 0.0
O19 O 0.12154 0.08212 0.48412 0.0
O20 O 0.17672 0.04714 0.44517 0.0
O21 O 0.01885 0.88414 0.43612 0.0
O22 O 0.97347 0.92872 0.39691 0.0
C23 C 0.08204 0.17739 0.40512 0.0
O24 O 0.89064 1.00863 0.44429 0.0
O25 O 0.93998 0.96698 0.48319 0.0
In26 In 0.03312 0.01675 0.7802 0.0
O27 O 0.9283 0.86882 0.79308 0.0
O28 O 0.01562 0.9548 0.8294 0.0
C29 C 0.13721 0.96632 0.74656 0.0
C30 C 0.91153 0.04336 0.74662 0.0
C31 C 0.13599 0.18174 0.80812 0.0
O32 O 0.15748 0.99912 0.77404 0.0
O33 O 0.0629 0.95668 0.73614 0.0
O34 O 0.0613 0.12051 0.81964 0.0
O35 O 0.15747 0.1605 0.78227 0.0
C36 C 0.95081 0.87692 0.82186 0.0
O37 O 0.99464 0.07938 0.73897 0.0
O38 O 0.89042 0.99558 0.77134 0.0
Mg39 Mg 0.03307 0.52697 0.27124 0.0
C40 C 0.05709 0.42565 0.32052 0.0
O41 O 0.97154 0.40676 0.32125 0.0
C42 C 0.03692 0.66994 0.23507 0.0
O43 O 0.95475 0.62003 0.24717 0.0
C44 C 0.96239 0.41743 0.21071 0.0
O45 O 0.99809 0.49911 0.19816 0.0
O46 O 0.95663 0.40926 0.24066 0.0
O47 O 0.11074 0.48169 0.29985 0.0
O48 O 0.961 0.56442 0.30585 0.0
C49 C 1.00998 0.60733 0.32962 0.0
O50 O 0.09234 0.61805 0.33218 0.0
O51 O 0.09703 0.64731 0.24074 0.0
Mg52 Mg 0.52566 0.01355 0.60871 0.0
C53 C 0.43458 0.04303 0.55643 0.0
O54 O 0.41934 0.95929 0.55376 0.0
C55 C 0.63735 0.01782 0.66025 0.0
O56 O 0.5674 0.93432 0.65812 0.0
C57 C 0.41248 0.9865 0.66347 0.0
O58 O 0.48648 0.0666 0.66713 0.0
O59 O 0.40607 0.93922 0.63918 0.0
O60 O 0.48385 0.09225 0.57924 0.0
O61 O 0.56985 0.94292 0.57622 0.0
C62 C 0.61768 0.99527 0.55378 0.0
O63 O 0.63014 0.0782 0.55244 0.0
O64 O 0.64252 0.07768 0.64082 0.0
Mg65 Mg 0.52379 0.52401 0.94013 0.0
C66 C 0.41098 0.47973 0.8807 0.0
O67 O 0.49341 0.52524 0.86842 0.0
C68 C 0.56254 0.64051 0.99791 0.0
O69 O 0.51447 0.55916 1.0106 0.0
C70 C 0.42316 0.3332 0.96733 0.0
O71 O 0.39242 0.31407 0.93818 0.0
O72 O 0.48708 0.41358 0.97374 0.0
O73 O 0.40265 0.47736 0.91061 0.0
O74 O 0.63925 0.55999 0.90879 0.0
C75 C 0.71824 0.62412 0.91676 0.0
O76 O 0.73125 0.65418 0.946 0.0
O77 O 0.56718 0.64722 0.96796 0.0
C78 C 0.95937 0.28156 0.13919 0.0
C79 C 0.97369 0.21483 0.15338 0.0
H80 H 0.94424 0.3987 0.14641 0.0
C81 C 0.97306 0.20879 0.18648 0.0
H82 H 0.95901 0.28721 0.1137 0.0
C83 C 0.96215 0.2706 0.20513 0.0
C84 C 0.95369 0.34117 0.19107 0.0
H85 H 0.98272 0.15713 0.19802 0.0
H86 H 0.96548 0.26597 0.23058 0.0
C87 C 0.95051 0.34495 0.1579 0.0
C88 C 0.74271 0.99918 0.48004 0.0
C89 C 0.79701 0.96358 0.49093 0.0
H90 H 0.64248 0.03645 0.49173 0.0
C91 C 0.78085 0.92476 0.52132 0.0
H92 H 0.75319 0.02922 0.45673 0.0
C93 C 0.71567 0.9272 0.5412 0.0
C94 C 0.66725 0.96996 0.53108 0.0
H95 H 0.82152 0.89649 0.53026 0.0
H96 H 0.70818 0.9019 0.56516 0.0
C97 C 0.67921 1.00322 0.50004 0.0
C98 C 0.92466 0.81969 0.87753 0.0
C99 C 0.89963 0.80439 0.8455 0.0
H100 H 0.88789 0.77372 0.92518 0.0
C101 C 0.82084 0.72261 0.83678 0.0
H102 H 0.98541 0.88172 0.88498 0.0
C103 C 0.76482 0.66034 0.85985 0.0
C104 C 0.78647 0.67877 0.89212 0.0
H105 H 0.8001 0.70862 0.81224 0.0
H106 H 0.70212 0.60023 0.85246 0.0
C107 C 0.86877 0.75753 0.90059 0.0
C108 C 0.11079 0.83207 0.16516 0.0
C109 C 0.0538 0.86983 0.1693 0.0
H110 H 0.15155 0.73882 0.18329 0.0
C111 C 1.00094 0.84916 0.19688 0.0
H112 H 0.15268 0.84736 0.14418 0.0
C113 C 1.00051 0.78815 0.21892 0.0
C114 C 0.05322 0.74631 0.21414 0.0
H115 H 0.9573 0.87799 0.20108 0.0
H116 H 0.95624 0.77138 0.23936 0.0
C117 C 0.11069 0.77066 0.18757 0.0
C118 C 0.32243 0.05583 0.48175 0.0
C119 C 0.2653 0.08779 0.49292 0.0
H120 H 0.42158 0.01716 0.4935 0.0
C121 C 0.27608 0.11977 0.52422 0.0
H122 H 0.31609 0.03098 0.45776 0.0
C123 C 0.33837 0.11358 0.54458 0.0
C124 C 0.3892 0.0739 0.53396 0.0
H125 H 0.23306 0.14498 0.53342 0.0
H126 H 0.34146 0.13308 0.56912 0.0
C127 C 0.38296 0.04801 0.50217 0.0
C128 C 0.28035 0.33291 0.81086 0.0
C129 C 0.19852 0.26704 0.82513 0.0
H130 H 0.41087 0.45319 0.81705 0.0
C131 C 0.18167 0.27933 0.85675 0.0
H132 H 0.29493 0.32573 0.78644 0.0
C133 C 0.24839 0.35243 0.87442 0.0
C134 C 0.33308 0.41477 0.86073 0.0
H135 H 0.119 0.22986 0.86835 0.0
H136 H 0.23541 0.35715 0.89921 0.0
C137 C 0.34677 0.40617 0.82843 0.0
C138 C 0.74902 0.99149 0.73328 0.0
C139 C 0.84238 0.04856 0.72666 0.0
H140 H 0.61129 0.93786 0.71735 0.0
C141 C 0.86792 0.10428 0.69958 0.0
H142 H 0.72708 0.9481 0.754 0.0
C143 C 0.80101 0.09935 0.67867 0.0
C144 C 0.70799 0.03754 0.68439 0.0
H145 H 0.93951 0.14923 0.69398 0.0
H146 H 0.82221 0.13986 0.65727 0.0
C147 C 0.68267 0.98555 0.71226 0.0
C148 C 0.76336 0.8697 0.02176 0.0
C149 C 0.77699 0.85228 0.05317 0.0
H150 H 0.68398 0.81636 0.97948 0.0
C151 C 0.71268 0.76961 0.06725 0.0
H152 H 0.81173 0.9331 1.01036 0.0
C153 C 0.63893 0.70348 0.04982 0.0
C154 C 0.62853 0.71797 1.01773 0.0
H155 H 0.72088 0.75474 0.09154 0.0
H156 H 0.59284 0.63909 0.06114 0.0
C157 C 0.69002 0.80293 1.00413 0.0
C158 C 1.00986 0.73462 0.40217 0.0
C159 C 0.97365 0.78748 0.39038 0.0
H160 H 0.04907 0.63525 0.3919 0.0
C161 C 0.93582 0.76962 0.3598 0.0
H162 H 0.03914 0.7464 0.42567 0.0
C163 C 0.93994 0.70429 0.34062 0.0
C164 C 0.98331 0.65727 0.35165 0.0
H165 H 0.90717 0.80915 0.35017 0.0
H166 H 0.91545 0.69559 0.31649 0.0
C167 C 0.01546 0.67086 0.38288 0.0
C168 C 0.17877 0.91918 0.69572 0.0
C169 C 0.20147 0.95235 0.72685 0.0
H170 H 0.22846 0.90173 0.65099 0.0
C171 C 0.29044 0.98216 0.73797 0.0
H172 H 0.11053 0.89542 0.68657 0.0
C173 C 0.35745 0.98647 0.71765 0.0
C174 C 0.33661 0.95956 0.68596 0.0
H175 H 0.30998 1.00757 0.76186 0.0
H176 H 0.42697 0.01533 0.72633 0.0
C177 C 0.2459 0.92215 0.67543 0.0
C178 C 0.2348 0.12835 1.00978 0.0
C179 C 0.24161 0.16307 0.04044 0.0
H180 H 0.28761 0.15472 0.96258 0.0
C181 C 0.3164 0.2492 0.04787 0.0
H182 H 0.17816 0.06196 1.00336 0.0
C183 C 0.37993 0.30196 0.02459 0.0
C184 C 0.36916 0.27013 0.99328 0.0
H185 H 0.32386 0.27744 0.07137 0.0
H186 H 0.4343 0.36979 0.03078 0.0
C187 C 0.29764 0.18151 0.9864 0.0
C188 C 0.06294 0.31206 0.39566 0.0
C189 C 0.09489 0.25451 0.38505 0.0
H190 H 0.02665 0.41226 0.38312 0.0
C191 C 0.12902 0.2652 0.35404 0.0
H192 H 0.03641 0.30576 0.4194 0.0
C193 C 0.12528 0.32812 0.3334 0.0
C194 C 0.08602 0.37977 0.34344 0.0
H195 H 0.1543 0.22186 0.34528 0.0
H196 H 0.14644 0.33123 0.30906 0.0
C197 C 0.05757 0.37325 0.37495 0.0
loop_
_geom_bond_atom_site_label_1
_geom_bond_atom_site_label_2
_geom_bond_distance
_geom_bond_site_symmetry_2
_ccdc_geom_bond_type
In0 O1 2.294 1_455 S
In0 O2 2.326 . S
In0 O6 2.266 1_445 S
In0 O7 2.326 1_445 S
In0 O8 2.266 1_545 S
In0 O9 2.326 1_445 S
In0 O11 2.294 . S
In0 O12 2.326 . S
O1 In0 2.294 1_655 S
O1 C10 1.240 1_655 S
O2 In0 2.326 . S
O2 C10 1.252 . S
C3 O6 1.252 . S
C3 O7 1.260 . S
C4 O11 1.240 . S
C4 O12 1.252 . S
C5 O8 1.252 . S
C5 O9 1.260 1_455 S
O6 In0 2.266 1_665 S
O6 C3 1.252 . S
O7 In0 2.326 1_665 S
O7 C3 1.260 . S
O8 In0 2.266 1_565 S
O8 C5 1.252 . S
O9 In0 2.326 1_665 S
O9 C5 1.260 1_655 S
C10 O1 1.240 1_455 S
C10 O2 1.252 . S
O11 In0 2.294 . S
O11 C4 1.240 . S
O12 In0 2.326 . S
O12 C4 1.252 . S
In13 O14 2.294 . S
In13 O15 2.326 1_455 S
In13 O19 2.266 . S
In13 O20 2.326 1_545 S
In13 O21 2.266 1_445 S
In13 O22 2.326 1_545 S
In13 O24 2.294 1_445 S
In13 O25 2.326 1_455 S
O14 In13 2.294 . S
O14 C23 1.240 . S
O15 In13 2.326 1_655 S
O15 C23 1.252 1_655 S
C16 O19 1.252 . S
C16 O20 1.260 1_545 S
C17 O24 1.240 1_545 S
C17 O25 1.252 . S
C18 O21 1.252 1_455 S
C18 O22 1.260 . S
O19 In13 2.266 . S
O19 C16 1.252 . S
O20 In13 2.326 1_565 S
O20 C16 1.260 1_565 S
O21 In13 2.266 1_665 S
O21 C18 1.252 1_655 S
O22 In13 2.326 1_565 S
O22 C18 1.260 . S
C23 O14 1.240 . S
C23 O15 1.252 1_455 S
O24 In13 2.294 1_665 S
O24 C17 1.240 1_565 S
O25 In13 2.326 1_655 S
O25 C17 1.252 . S
In26 O27 2.294 1_445 S
In26 O28 2.326 1_445 S
In26 O32 2.266 1_545 S
In26 O33 2.326 . S
In26 O34 2.266 . S
In26 O35 2.326 . S
In26 O37 2.294 1_455 S
In26 O38 2.326 1_445 S
O27 In26 2.294 1_665 S
O27 C36 1.240 . S
O28 In26 2.326 1_665 S
O28 C36 1.252 . S
C29 O32 1.252 1_545 S
C29 O33 1.260 . S
C30 O37 1.240 . S
C30 O38 1.252 1_545 S
C31 O34 1.252 . S
C31 O35 1.260 . S
O32 In26 2.266 1_565 S
O32 C29 1.252 1_565 S
O33 In26 2.326 . S
O33 C29 1.260 . S
O34 In26 2.266 . S
O34 C31 1.252 . S
O35 In26 2.326 . S
O35 C31 1.260 . S
C36 O27 1.240 . S
C36 O28 1.252 . S
O37 In26 2.294 1_655 S
O37 C30 1.240 . S
O38 In26 2.326 1_665 S
O38 C30 1.252 1_565 S
Mg39 O46 2.141 . S
Mg39 O47 2.048 . S
Mg39 O48 2.048 . S
Mg39 O51 2.141 . S
C40 O41 1.313 1_455 S
C40 O47 1.195 . S
O41 C40 1.313 1_655 S
C42 O43 1.241 1_455 S
C42 O51 1.294 . S
O43 C42 1.241 1_655 S
C44 O45 1.240 1_455 S
C44 O46 1.291 . S
O45 C44 1.240 1_655 S
O46 Mg39 2.141 . S
O46 C44 1.291 . S
O47 Mg39 2.048 . S
O47 C40 1.195 . S
O48 Mg39 2.048 . S
O48 C49 1.195 . S
C49 O48 1.195 . S
C49 O50 1.313 1_455 S
O50 C49 1.313 1_655 S
O51 Mg39 2.141 . S
O51 C42 1.294 . S
Mg52 O59 2.141 . S
Mg52 O60 2.048 . S
Mg52 O61 2.048 . S
Mg52 O64 2.141 . S
C53 O54 1.313 1_545 S
C53 O60 1.195 . S
O54 C53 1.313 1_565 S
C55 O56 1.239 1_545 S
C55 O64 1.296 . S
O56 C55 1.239 1_565 S
C57 O58 1.238 1_545 S
C57 O59 1.292 . S
O58 C57 1.238 1_565 S
O59 Mg52 2.141 . S
O59 C57 1.292 . S
O60 Mg52 2.048 . S
O60 C53 1.195 . S
O61 Mg52 2.048 . S
O61 C62 1.195 . S
C62 O61 1.195 . S
C62 O63 1.313 1_545 S
O63 C62 1.313 1_565 S
O64 Mg52 2.141 . S
O64 C55 1.296 . S
Mg65 O72 2.141 . S
Mg65 O73 2.048 . S
Mg65 O74 2.048 . S
Mg65 O77 2.141 . S
C66 O67 1.313 . S
C66 O73 1.195 . S
O67 C66 1.313 . S
C68 O69 1.245 . S
C68 O77 1.289 . S
O69 C68 1.245 . S
C70 O71 1.245 . S
C70 O72 1.289 . S
O71 C70 1.245 . S
O72 Mg65 2.141 . S
O72 C70 1.289 . S
O73 Mg65 2.048 . S
O73 C66 1.195 . S
O74 Mg65 2.048 . S
O74 C75 1.195 . S
C75 O74 1.195 . S
C75 O76 1.313 . S
O76 C75 1.313 . S
O77 Mg65 2.141 . S
O77 C68 1.289 . S
C78 C79 1.382 1_655 S
C78 H82 0.952 . S
C78 C87 1.393 . S
C79 C78 1.382 1_455 S
C79 C81 1.387 . S
H80 C87 0.950 . S
C81 C79 1.387 . S
C81 C83 1.390 . S
C81 H85 0.950 . S
H82 C78 0.952 . S
C83 C81 1.390 . S
C83 C84 1.387 . S
C83 H86 0.950 . S
C84 C83 1.387 . S
C84 C87 1.387 1_455 S
H85 C81 0.950 . S
H86 C83 0.950 . S
C87 C78 1.393 . S
C87 H80 0.950 . S
C87 C84 1.387 1_655 S
C88 C89 1.387 1_565 S
C88 H92 0.950 . S
C88 C97 1.390 . S
C89 C88 1.387 1_545 S
C89 C91 1.387 . S
H90 C97 0.950 . S
C91 C89 1.387 . S
C91 C93 1.390 . S
C91 H95 0.950 . S
H92 C88 0.950 . S
C93 C91 1.390 . S
C93 C94 1.387 . S
C93 H96 0.950 . S
C94 C93 1.387 . S
C94 C97 1.387 1_545 S
H95 C91 0.950 . S
H96 C93 0.950 . S
C97 C88 1.390 . S
C97 H90 0.950 . S
C97 C94 1.387 1_565 S
C98 C99 1.387 . S
C98 H102 0.950 . S
C98 C107 1.390 . S
C99 C98 1.387 . S
C99 C101 1.387 . S
H100 C107 0.950 . S
C101 C99 1.387 . S
C101 C103 1.390 . S
C101 H105 0.950 . S
H102 C98 0.950 . S
C103 C101 1.390 . S
C103 C104 1.387 . S
C103 H106 0.950 . S
C104 C103 1.387 . S
C104 C107 1.387 . S
H105 C101 0.950 . S
H106 C103 0.950 . S
C107 C98 1.390 . S
C107 H100 0.950 . S
C107 C104 1.387 . S
C108 C109 1.387 . S
C108 H112 0.950 . S
C108 C117 1.390 . S
C109 C108 1.387 . S
C109 C111 1.387 1_455 S
H110 C117 0.950 . S
C111 C109 1.387 1_655 S
C111 C113 1.390 . S
C111 H115 0.950 . S
H112 C108 0.950 . S
C113 C111 1.390 . S
C113 C114 1.387 1_655 S
C113 H116 0.950 . S
C114 C113 1.387 1_455 S
C114 C117 1.387 . S
H115 C111 0.950 . S
H116 C113 0.950 . S
C117 C108 1.390 . S
C117 H110 0.950 . S
C117 C114 1.387 . S
C118 C119 1.387 1_565 S
C118 H122 0.950 . S
C118 C127 1.390 . S
C119 C118 1.387 1_545 S
C119 C121 1.387 . S
H120 C127 0.950 . S
C121 C119 1.387 . S
C121 C123 1.390 . S
C121 H125 0.950 . S
H122 C118 0.950 . S
C123 C121 1.390 . S
C123 C124 1.387 . S
C123 H126 0.950 . S
C124 C123 1.387 . S
C124 C127 1.387 1_545 S
H125 C121 0.950 . S
H126 C123 0.950 . S
C127 C118 1.390 . S
C127 H120 0.950 . S
C127 C124 1.387 1_565 S
C128 C129 1.387 . S
C128 H132 0.950 . S
C128 C137 1.390 . S
C129 C128 1.387 . S
C129 C131 1.387 . S
H130 C137 0.950 . S
C131 C129 1.387 . S
C131 C133 1.390 . S
C131 H135 0.950 . S
H132 C128 0.950 . S
C133 C131 1.390 . S
C133 C134 1.387 . S
C133 H136 0.950 . S
C134 C133 1.387 . S
C134 C137 1.387 . S
H135 C131 0.950 . S
H136 C133 0.950 . S
C137 C128 1.390 . S
C137 H130 0.950 . S
C137 C134 1.387 . S
C138 C139 1.387 1_565 S
C138 H142 0.950 . S
C138 C147 1.390 . S
C139 C138 1.387 1_545 S
C139 C141 1.387 . S
H140 C147 0.950 . S
C141 C139 1.387 . S
C141 C143 1.390 . S
C141 H145 0.950 . S
H142 C138 0.950 . S
C143 C141 1.390 . S
C143 C144 1.387 . S
C143 H146 0.950 . S
C144 C143 1.387 . S
C144 C147 1.387 1_545 S
H145 C141 0.950 . S
H146 C143 0.950 . S
C147 C138 1.390 . S
C147 H140 0.950 . S
C147 C144 1.387 1_565 S
C148 C149 1.387 . S
C148 H152 0.950 . S
C148 C157 1.390 1_554 S
C149 C148 1.387 . S
C149 C151 1.387 . S
H150 C157 0.950 . S
C151 C149 1.387 . S
C151 C153 1.390 . S
C151 H155 0.950 . S
H152 C148 0.950 . S
C153 C151 1.390 . S
C153 C154 1.387 1_554 S
C153 H156 0.950 . S
C154 C153 1.387 1_556 S
C154 C157 1.387 . S
H155 C151 0.950 . S
H156 C153 0.950 . S
C157 C148 1.390 1_556 S
C157 H150 0.950 . S
C157 C154 1.387 . S
C158 C159 1.387 1_655 S
C158 H162 0.950 . S
C158 C167 1.390 . S
C159 C158 1.387 1_455 S
C159 C161 1.387 . S
H160 C167 0.950 . S
C161 C159 1.387 . S
C161 C163 1.390 . S
C161 H165 0.950 . S
H162 C158 0.950 . S
C163 C161 1.390 . S
C163 C164 1.387 . S
C163 H166 0.950 . S
C164 C163 1.387 . S
C164 C167 1.387 1_455 S
H165 C161 0.950 . S
H166 C163 0.950 . S
C167 C158 1.390 . S
C167 H160 0.950 . S
C167 C164 1.387 1_655 S
C168 C169 1.387 . S
C168 H172 0.950 . S
C168 C177 1.390 . S
C169 C168 1.387 . S
C169 C171 1.387 1_545 S
H170 C177 0.950 . S
C171 C169 1.387 1_565 S
C171 C173 1.390 . S
C171 H175 0.950 . S
H172 C168 0.950 . S
C173 C171 1.390 . S
C173 C174 1.387 1_565 S
C173 H176 0.950 . S
C174 C173 1.387 1_545 S
C174 C177 1.387 . S
H175 C171 0.950 . S
H176 C173 0.950 . S
C177 C168 1.390 . S
C177 H170 0.950 . S
C177 C174 1.387 . S
C178 C179 1.387 . S
C178 H182 0.950 . S
C178 C187 1.390 1_554 S
C179 C178 1.387 . S
C179 C181 1.387 . S
H180 C187 0.950 . S
C181 C179 1.387 . S
C181 C183 1.390 . S
C181 H185 0.950 . S
H182 C178 0.950 . S
C183 C181 1.390 . S
C183 C184 1.387 1_554 S
C183 H186 0.950 . S
C184 C183 1.387 1_556 S
C184 C187 1.387 . S
H185 C181 0.950 . S
H186 C183 0.950 . S
C187 C178 1.390 1_556 S
C187 H180 0.950 . S
C187 C184 1.387 . S
C188 C189 1.387 1_655 S
C188 H192 0.950 . S
C188 C197 1.390 . S
C189 C188 1.387 1_455 S
C189 C191 1.387 . S
H190 C197 0.950 . S
C191 C189 1.387 . S
C191 C193 1.390 . S
C191 H195 0.950 . S
H192 C188 0.950 . S
C193 C191 1.390 . S
C193 C194 1.387 . S
C193 H196 0.950 . S
C194 C193 1.387 . S
C194 C197 1.387 1_455 S
H195 C191 0.950 . S
H196 C193 0.950 . S
C197 C188 1.390 . S
C197 H190 0.950 . S
C197 C194 1.387 1_655 S
C84 C44 1.459 . S
C79 C10 1.464 . S
C89 C17 1.521 . S
C94 C62 1.517 . S
C99 C36 1.527 . S
C104 C75 1.523 . S
C109 C5 1.466 . S
C114 C42 1.453 . S
C124 C53 1.516 . S
C119 C16 1.523 . S
C129 C31 1.528 . S
C134 C66 1.520 . S
C144 C55 1.446 . S
C139 C30 1.461 . S
C149 C3 1.467 . S
C154 C68 1.455 . S
C164 C49 1.521 . S
C159 C18 1.525 . S
C174 C57 1.459 . S
C169 C29 1.461 . S
C184 C70 1.460 . S
C179 C4 1.466 . S
C189 C23 1.523 . S
C194 C40 1.514 . S
