# Generated by pormake.
# Topology pth, (4,4)-cn, num edge types: 1
# Building blocks:
#     Node 0, Type 0, BuildingBlock: QUQFOY_clean_sbu_3, # of connection points: 4
#     Node 1, Type 0, BuildingBlock: QUQFOY_clean_sbu_3, # of connection points: 4
#     Node 2, Type 0, BuildingBlock: QUQFOY_clean_sbu_3, # of connection points: 4
#     Node 3, Type 1, BuildingBlock: KOZSID_clean_sbu_0, # of connection points: 4
#     Node 4, Type 1, BuildingBlock: KOZSID_clean_sbu_0, # of connection points: 4
#     Node 5, Type 1, BuildingBlock: KOZSID_clean_sbu_0, # of connection points: 4
#     Edge 6, Type (0, 1), None
#     Edge 7, Type (0, 1), None
#     Edge 8, Type (0, 1), None
#     Edge 9, Type (0, 1), None
#     Edge 10, Type (0, 1), None
#     Edge 11, Type (0, 1), None
#     Edge 12, Type (0, 1), None
#     Edge 13, Type (0, 1), None
#     Edge 14, Type (0, 1), None
#     Edge 15, Type (0, 1), None
#     Edge 16, Type (0, 1), None
#     Edge 17, Type (0, 1), None
# Relax obj value: 0.008
# Max RMSD: 0.087
# Mean RMSD: 0.049
data_MOF--net-pth--node1-QUQFOY_clean_sbu_3--node2-KOZSID_clean_sbu_0--edge1-none
_symmetry_space_group_name_H-M    P1
_symmetry_Int_Tables_number       1
_symmetry_cell_setting            triclinic
loop_
_symmetry_equiv_pos_as_xyz
'x, y, z'
_cell_length_a     13.546358
_cell_length_b     13.447378
_cell_length_c     32.426888
_cell_angle_alpha  84.333865
_cell_angle_beta   85.516195
_cell_angle_gamma 120.78593
loop_
_atom_site_label
_atom_site_type_symbol
_atom_site_fract_x
_atom_site_fract_y
_atom_site_fract_z
_atom_type_partial_charge
C0 C 0.02614 0.27154 0.07683 0.0
O1 O 0.9676 0.27152 0.04813 0.0
Cd2 Cd 0.96818 0.18311 -0.01259 0.0
O3 O 0.07359 0.21084 0.07722 0.0
Cd4 Cd 0.07609 0.0661 0.03663 0.0
C5 C 0.26325 0.29626 0.966 0.0
O6 O 0.89082 0.97947 0.0082 0.0
O7 O 0.02767 0.9602 0.97846 0.0
O8 O 0.02486 0.94108 0.10408 0.0
C9 C 0.92248 0.9325 0.98235 0.0
O10 O 0.17161 0.28854 0.95502 0.0
C11 C 0.09208 0.90446 0.09464 0.0
O12 O 0.25676 0.22832 -0.0024 0.0
O13 O 0.15384 0.94675 0.05878 0.0
C14 C 0.35309 0.20056 0.40434 0.0
O15 O 0.41501 0.28392 0.37421 0.0
Cd16 Cd 0.33603 0.31069 0.31437 0.0
O17 O 0.24261 0.14126 0.40693 0.0
Cd18 Cd 0.09664 0.15531 0.36699 0.0
C19 C 0.1701 0.02124 0.30148 0.0
O20 O 0.19501 0.3603 0.33411 0.0
O21 O 0.05627 0.23421 0.30441 0.0
O22 O 0.01039 0.17942 0.43037 0.0
C23 C 0.12455 0.34037 0.30801 0.0
O24 O 0.25976 0.12311 0.28944 0.0
C25 C 0.90559 0.1156 0.42472 0.0
O26 O 0.09234 0.0036 0.33099 0.0
O27 O 0.88809 0.05925 0.39414 0.0
C28 C 0.93557 0.13566 0.66537 0.0
O29 O 0.93125 0.18513 0.69628 0.0
Cd30 Cd 0.048 0.21336 0.75118 0.0
O31 O 0.00932 0.10458 0.66024 0.0
Cd32 Cd 0.16164 0.10265 0.6954 0.0
C33 C 0.94053 0.9183 0.77169 0.0
O34 O 0.2441 0.28703 0.72257 0.0
O35 O 0.2847 0.16044 0.7492 0.0
O36 O 0.2804 0.16755 0.62675 0.0
C37 C 0.30083 0.26256 0.74665 0.0
O38 O 0.95321 0.01073 0.78393 0.0
C39 C 0.30857 0.09094 0.63157 0.0
O40 O 1.00137 0.92363 0.73861 0.0
O41 O 0.26532 0.01807 0.66556 0.0
C42 C 0.20395 0.81552 0.12559 0.0
C43 C 0.30768 0.89326 0.09887 0.0
C44 C 0.38993 0.87313 0.11171 0.0
C45 C 0.33337 0.78567 0.1455 0.0
N46 N 0.21931 0.74767 0.15506 0.0
Co47 Co 0.10665 0.62177 0.20242 0.0
N48 N 0.23396 0.60822 0.22506 0.0
C49 C 0.34887 0.67479 0.21026 0.0
C50 C 0.4162 0.64806 0.23252 0.0
C51 C 0.33979 0.55817 0.26337 0.0
C52 C 0.22943 0.53495 0.25802 0.0
N53 N 0.99348 0.49115 0.24828 0.0
C54 C 0.0107 0.42447 0.27752 0.0
C55 C 0.90734 0.34076 0.303 0.0
C56 C 0.82148 0.35255 0.28848 0.0
C57 C 0.87699 0.44276 0.25531 0.0
N58 N 0.98102 0.6412 0.18152 0.0
C59 C 0.86696 0.58 0.19803 0.0
C60 C 0.80104 0.61167 0.17703 0.0
C61 C 0.87784 0.7005 0.14586 0.0
C62 C 0.9875 0.71947 0.14997 0.0
N63 N 0.07987 0.5029 0.16575 0.0
C64 C 0.04337 0.34649 0.10895 0.0
C65 C 0.95309 0.35868 0.12552 0.0
C66 C 0.97234 0.43464 0.15435 0.0
C67 C 0.15138 0.41026 0.12222 0.0
C68 C 0.16816 0.48873 0.15008 0.0
N69 N 0.13175 0.74053 0.23856 0.0
C70 C 0.05266 0.8157 0.28744 0.0
C71 C 0.1578 0.92293 0.28104 0.0
C72 C 0.25153 0.93529 0.25472 0.0
C73 C 0.23704 0.84317 0.23428 0.0
C74 C 0.0416 0.72637 0.26604 0.0
H75 H 0.3115 0.8578 0.21449 0.0
H76 H 0.95832 0.64782 0.27155 0.0
H77 H 0.89849 0.43669 0.16656 0.0
H78 H 0.2536 0.53796 0.15794 0.0
C79 C 0.38911 0.75169 0.17261 0.0
C80 C 0.09503 0.81341 0.12362 0.0
C81 C 0.12241 0.43594 0.2821 0.0
C82 C 0.82325 0.48799 0.23153 0.0
H83 H 0.32602 0.96142 0.07357 0.0
H84 H 0.4817 0.92133 0.09933 0.0
H85 H 0.50924 0.68604 0.22603 0.0
H86 H 0.36378 0.51316 0.28606 0.0
H87 H 0.89511 0.27762 0.3294 0.0
H88 H 0.72965 0.30188 0.30079 0.0
H89 H 0.70795 0.57361 0.18326 0.0
H90 H 0.8543 0.74475 0.12261 0.0
H91 H 0.86748 0.30907 0.1165 0.0
H92 H 0.22379 0.403 0.10996 0.0
H93 H 0.97808 0.80138 0.30804 0.0
H94 H 0.33574 0.01596 0.24957 0.0
C95 C 0.384 0.98297 0.59194 0.0
C96 C 0.28811 0.87269 0.60841 0.0
C97 C 0.31239 0.79233 0.59611 0.0
C98 C 0.42033 0.85739 0.57243 0.0
N99 N 0.46577 0.974 0.56867 0.0
Co100 Co 0.61688 0.09871 0.53485 0.0
N101 N 0.6296 0.98263 0.50428 0.0
C102 C 0.56444 0.865 0.51512 0.0
C103 C 0.59427 0.80622 0.48968 0.0
C104 C 0.68557 0.89173 0.46121 0.0
C105 C 0.70638 0.99876 0.47087 0.0
N106 N 0.76918 0.22312 0.50164 0.0
C107 C 0.83175 0.21972 0.46764 0.0
C108 C 0.9306 0.32972 0.45321 0.0
C109 C 0.93387 0.40169 0.48069 0.0
C110 C 0.83606 0.33318 0.5097 0.0
N111 N 0.60364 0.21423 0.56512 0.0
C112 C 0.69095 0.32329 0.56736 0.0
C113 C 0.65781 0.38165 0.59185 0.0
C114 C 0.54238 0.30444 0.6062 0.0
C115 C 0.511 0.20283 0.5893 0.0
N116 N 0.70007 0.07645 0.57789 0.0
C117 C 0.85165 0.10963 0.63577 0.0
C118 C 0.74429 0.09762 0.64799 0.0
C119 C 0.66877 0.07874 0.61876 0.0
C120 C 0.877 0.09402 0.59514 0.0
C121 C 0.80013 0.07767 0.56668 0.0
N122 N 0.53478 0.12538 0.49213 0.0
C123 C 0.51286 0.26365 0.44693 0.0
C124 C 0.4118 0.1728 0.43592 0.0
C125 C 0.37333 0.05696 0.4533 0.0
C126 C 0.43728 0.03499 0.48092 0.0
C127 C 0.57174 0.23835 0.47534 0.0
H128 H 0.40731 0.94527 0.49344 0.0
H129 H 0.64645 0.31133 0.48408 0.0
H130 H 0.58797 0.07275 0.62877 0.0
H131 H 0.82538 0.07271 0.5351 0.0
C132 C 0.47118 0.81235 0.54753 0.0
C133 C 0.39693 0.09357 0.60081 0.0
C134 C 0.8095 0.11215 0.45181 0.0
C135 C 0.79745 0.37321 0.54157 0.0
H136 H 0.208 0.85151 0.62698 0.0
H137 H 0.25556 0.69781 0.60196 0.0
H138 H 0.55463 0.7123 0.49166 0.0
H139 H 0.73334 0.87576 0.43723 0.0
H140 H 0.99541 0.35542 0.42614 0.0
H141 H 0.99859 0.49367 0.47914 0.0
H142 H 0.71054 0.4706 0.59784 0.0
H143 H 0.4889 0.32099 0.6275 0.0
H144 H 0.71943 0.10439 0.67969 0.0
H145 H 0.95793 0.09959 0.58478 0.0
H146 H 0.54552 0.35437 0.43415 0.0
H147 H 0.29638 0.9841 0.44487 0.0
C148 C 0.83339 0.70195 0.80649 0.0
C149 C 0.92393 0.68448 0.79596 0.0
C150 C 0.89616 0.58148 0.81982 0.0
C151 C 0.79094 0.54255 0.84354 0.0
N152 N 0.74864 0.61325 0.83565 0.0
Co153 Co 0.60491 0.59798 0.86594 0.0
N154 N 0.57216 0.45622 0.90546 0.0
C155 C 0.63603 0.40497 0.90589 0.0
C156 C 0.58803 0.30493 0.93485 0.0
C157 C 0.48648 0.28998 0.95354 0.0
C158 C 0.47824 0.38263 0.93494 0.0
N159 N 0.4636 0.58526 0.89628 0.0
C160 C 0.38734 0.50626 0.92932 0.0
C161 C 0.30892 0.53674 0.94429 0.0
C162 C 0.33201 0.63413 0.91804 0.0
C163 C 0.4244 0.6591 0.88932 0.0
N164 N 0.63549 0.73756 0.82634 0.0
C165 C 0.56877 0.7853 0.82402 0.0
C166 C 0.60953 0.87635 0.79154 0.0
C167 C 0.70997 0.88947 0.77269 0.0
C168 C 0.72537 0.80641 0.79541 0.0
N169 N 0.50939 0.49398 0.82749 0.0
C170 C 0.37383 0.34427 0.7736 0.0
C171 C 0.35898 0.43493 0.78341 0.0
C172 C 0.42631 0.50742 0.8107 0.0
C173 C 0.45737 0.3298 0.79094 0.0
C174 C 0.52415 0.40548 0.8173 0.0
N175 N 0.70068 0.70187 0.90435 0.0
C176 C 0.75828 0.86743 0.94087 0.0
C177 C 0.84279 0.85165 0.95679 0.0
C178 C 0.85442 0.75966 0.94664 0.0
C179 C 0.78192 0.68541 0.92113 0.0
C180 C 0.68981 0.79308 0.91419 0.0
H181 H 0.79446 0.61623 0.91507 0.0
H182 H 0.63028 0.81229 0.90138 0.0
H183 H 0.40856 0.5726 0.81811 0.0
H184 H 0.58638 0.38968 0.82926 0.0
C185 C 0.73598 0.44768 0.87653 0.0
C186 C 0.83334 0.80669 0.79027 0.0
C187 C 0.37783 0.39514 0.94424 0.0
C188 C 0.47361 0.74856 0.85469 0.0
H189 H 1.00329 0.74177 0.7743 0.0
H190 H 0.949 0.54257 0.82115 0.0
H191 H 0.62088 0.24729 0.94067 0.0
H192 H 0.42531 0.21716 0.97744 0.0
H193 H 0.23955 0.49118 0.97067 0.0
H194 H 0.28557 0.67983 0.91926 0.0
H195 H 0.57308 0.9297 0.78352 0.0
H196 H 0.76835 0.95638 0.74652 0.0
H197 H 0.29389 0.44818 0.77098 0.0
H198 H 0.47177 0.26055 0.78409 0.0
H199 H 0.7479 0.93912 0.9477 0.0
H200 H 0.91887 0.7444 0.9586 0.0
loop_
_geom_bond_atom_site_label_1
_geom_bond_atom_site_label_2
_geom_bond_distance
_geom_bond_site_symmetry_2
_ccdc_geom_bond_type
C0 O1 1.306 . S
C0 O3 1.160 . S
O1 C0 1.306 . S
O1 Cd2 2.228 1_554 S
Cd2 O1 2.228 1_556 S
Cd2 O6 2.273 1_456 S
Cd2 O10 2.277 . S
O3 C0 1.160 . S
O3 Cd4 2.203 . S
Cd4 O3 2.203 . S
Cd4 O6 2.411 1_455 S
Cd4 O7 2.333 1_545 S
Cd4 O8 2.352 1_545 S
Cd4 O12 2.277 . S
Cd4 O13 2.356 1_545 S
C5 O10 1.209 . S
C5 O12 1.226 1_556 S
O6 Cd2 2.273 1_654 S
O6 Cd4 2.411 1_655 S
O6 C9 1.330 1_545 S
O7 Cd4 2.333 1_565 S
O7 C9 1.216 1_455 S
O8 Cd4 2.352 1_565 S
O8 C11 1.258 . S
C9 O6 1.330 1_565 S
C9 O7 1.216 1_655 S
O10 Cd2 2.277 . S
O10 C5 1.209 . S
C11 O8 1.258 . S
C11 O13 1.282 . S
O12 Cd4 2.277 . S
O12 C5 1.226 1_554 S
O13 Cd4 2.356 1_565 S
O13 C11 1.282 . S
C14 O15 1.306 . S
C14 O17 1.160 . S
O15 C14 1.306 . S
O15 Cd16 2.228 . S
Cd16 O15 2.228 . S
Cd16 O20 2.273 . S
Cd16 O24 2.277 . S
O17 C14 1.160 . S
O17 Cd18 2.203 . S
Cd18 O17 2.203 . S
Cd18 O20 2.411 . S
Cd18 O21 2.333 1_455 S
Cd18 O22 2.352 1_455 S
Cd18 O26 2.277 1_445 S
Cd18 O27 2.356 1_455 S
C19 O24 1.209 1_565 S
C19 O26 1.226 1_455 S
O20 Cd16 2.273 . S
O20 Cd18 2.411 . S
O20 C23 1.320 . S
O21 Cd18 2.333 1_655 S
O21 C23 1.214 1_655 S
O22 Cd18 2.352 1_655 S
O22 C25 1.258 . S
C23 O20 1.320 . S
C23 O21 1.214 1_455 S
O24 Cd16 2.277 . S
O24 C19 1.209 1_545 S
C25 O22 1.258 . S
C25 O27 1.282 . S
O26 Cd18 2.277 1_665 S
O26 C19 1.226 1_655 S
O27 Cd18 2.356 1_655 S
O27 C25 1.282 . S
C28 O29 1.306 . S
C28 O31 1.160 1_655 S
O29 C28 1.306 . S
O29 Cd30 2.228 1_655 S
Cd30 O29 2.228 1_455 S
Cd30 O34 2.273 . S
Cd30 O38 2.277 1_455 S
O31 C28 1.160 1_455 S
O31 Cd32 2.203 . S
Cd32 O31 2.203 . S
Cd32 O34 2.411 . S
Cd32 O35 2.333 . S
Cd32 O36 2.352 . S
Cd32 O40 2.277 1_545 S
Cd32 O41 2.356 1_545 S
C33 O38 1.209 1_565 S
C33 O40 1.226 1_655 S
O34 Cd30 2.273 . S
O34 Cd32 2.411 . S
O34 C37 1.320 . S
O35 Cd32 2.333 . S
O35 C37 1.214 . S
O36 Cd32 2.352 . S
O36 C39 1.258 . S
C37 O34 1.320 . S
C37 O35 1.214 . S
O38 Cd30 2.277 1_655 S
O38 C33 1.209 1_545 S
C39 O36 1.258 . S
C39 O41 1.282 1_545 S
O40 Cd32 2.277 1_565 S
O40 C33 1.226 1_455 S
O41 Cd32 2.356 1_565 S
O41 C39 1.282 1_565 S
C42 C43 1.443 . S
C42 N46 1.376 . S
C42 C80 1.389 . S
C43 C42 1.443 . S
C43 C44 1.340 . S
C43 H83 0.951 1_565 S
C44 C43 1.340 . S
C44 C45 1.439 . S
C44 H84 0.950 . S
C45 C44 1.439 . S
C45 N46 1.374 . S
C45 C79 1.395 . S
N46 C42 1.376 . S
N46 C45 1.374 . S
N46 Co47 2.008 . S
Co47 N46 2.008 . S
Co47 N48 1.995 . S
Co47 N53 2.008 1_455 S
Co47 N58 1.995 1_455 S
Co47 N63 2.282 . S
Co47 N69 2.282 . S
N48 Co47 1.995 . S
N48 C49 1.376 . S
N48 C52 1.383 . S
C49 N48 1.376 . S
C49 C50 1.446 . S
C49 C79 1.391 . S
C50 C49 1.446 . S
C50 C51 1.339 . S
C50 H85 0.949 . S
C51 C50 1.339 . S
C51 C52 1.439 . S
C51 H86 0.950 . S
C52 N48 1.383 . S
C52 C51 1.439 . S
C52 C81 1.392 . S
N53 Co47 2.008 1_655 S
N53 C54 1.376 . S
N53 C57 1.374 . S
C54 N53 1.376 . S
C54 C55 1.443 . S
C54 C81 1.389 1_655 S
C55 C54 1.443 . S
C55 C56 1.340 . S
C55 H87 0.951 . S
C56 C55 1.340 . S
C56 C57 1.439 . S
C56 H88 0.950 . S
C57 N53 1.374 . S
C57 C56 1.439 . S
C57 C82 1.395 . S
N58 Co47 1.995 1_655 S
N58 C59 1.376 . S
N58 C62 1.383 . S
C59 N58 1.376 . S
C59 C60 1.446 . S
C59 C82 1.391 . S
C60 C59 1.446 . S
C60 C61 1.339 . S
C60 H89 0.949 . S
C61 C60 1.339 . S
C61 C62 1.439 . S
C61 H90 0.950 . S
C62 N58 1.383 . S
C62 C61 1.439 . S
C62 C80 1.392 1_655 S
N63 Co47 2.282 . S
N63 C66 1.332 . S
N63 C68 1.332 . S
C64 C65 1.386 . S
C64 C67 1.388 . S
C65 C64 1.386 . S
C65 C66 1.382 . S
C65 H91 0.950 1_455 S
C66 N63 1.332 . S
C66 C65 1.382 . S
C66 H77 0.952 1_455 S
C67 C64 1.388 . S
C67 C68 1.382 . S
C67 H92 0.950 . S
C68 N63 1.332 . S
C68 C67 1.382 . S
C68 H78 0.948 . S
N69 Co47 2.282 . S
N69 C73 1.332 . S
N69 C74 1.332 1_455 S
C70 C71 1.388 1_655 S
C70 C74 1.382 . S
C70 H93 0.950 . S
C71 C70 1.388 1_455 S
C71 C72 1.386 . S
C72 C71 1.386 . S
C72 C73 1.382 . S
C72 H94 0.950 . S
C73 N69 1.332 . S
C73 C72 1.382 . S
C73 H75 0.952 . S
C74 N69 1.332 1_655 S
C74 C70 1.382 . S
C74 H76 0.948 . S
H75 C73 0.952 . S
H76 C74 0.948 . S
H77 C66 0.952 1_655 S
H78 C68 0.948 . S
C79 C45 1.395 . S
C79 C49 1.391 . S
C80 C42 1.389 . S
C80 C62 1.392 1_455 S
C81 C52 1.392 . S
C81 C54 1.389 1_455 S
C82 C57 1.395 . S
C82 C59 1.391 . S
H83 C43 0.951 1_545 S
H84 C44 0.950 . S
H85 C50 0.949 . S
H86 C51 0.950 . S
H87 C55 0.951 . S
H88 C56 0.950 . S
H89 C60 0.949 . S
H90 C61 0.950 . S
H91 C65 0.950 1_655 S
H92 C67 0.950 . S
H93 C70 0.950 . S
H94 C72 0.950 . S
C95 C96 1.443 1_545 S
C95 N99 1.376 . S
C95 C133 1.389 . S
C96 C95 1.443 1_565 S
C96 C97 1.340 . S
C96 H136 0.951 . S
C97 C96 1.340 . S
C97 C98 1.439 . S
C97 H137 0.950 . S
C98 C97 1.439 . S
C98 N99 1.374 1_565 S
C98 C132 1.395 . S
N99 C95 1.376 . S
N99 C98 1.374 1_545 S
N99 Co100 2.008 . S
Co100 N99 2.008 . S
Co100 N101 1.995 . S
Co100 N106 2.008 . S
Co100 N111 1.995 . S
Co100 N116 2.282 . S
Co100 N122 2.282 . S
N101 Co100 1.995 . S
N101 C102 1.376 1_545 S
N101 C105 1.383 . S
C102 N101 1.376 1_565 S
C102 C103 1.446 . S
C102 C132 1.391 . S
C103 C102 1.446 . S
C103 C104 1.339 . S
C103 H138 0.949 . S
C104 C103 1.339 . S
C104 C105 1.439 1_565 S
C104 H139 0.950 . S
C105 N101 1.383 . S
C105 C104 1.439 1_545 S
C105 C134 1.392 . S
N106 Co100 2.008 . S
N106 C107 1.376 . S
N106 C110 1.374 . S
C107 N106 1.376 . S
C107 C108 1.443 . S
C107 C134 1.389 . S
C108 C107 1.443 . S
C108 C109 1.340 . S
C108 H140 0.951 1_655 S
C109 C108 1.340 . S
C109 C110 1.439 . S
C109 H141 0.950 . S
C110 N106 1.374 . S
C110 C109 1.439 . S
C110 C135 1.395 . S
N111 Co100 1.995 . S
N111 C112 1.376 . S
N111 C115 1.383 . S
C112 N111 1.376 . S
C112 C113 1.446 . S
C112 C135 1.391 . S
C113 C112 1.446 . S
C113 C114 1.339 . S
C113 H142 0.949 . S
C114 C113 1.339 . S
C114 C115 1.439 . S
C114 H143 0.950 . S
C115 N111 1.383 . S
C115 C114 1.439 . S
C115 C133 1.392 . S
N116 Co100 2.282 . S
N116 C119 1.332 . S
N116 C121 1.332 . S
C117 C118 1.386 . S
C117 C120 1.388 . S
C118 C117 1.386 . S
C118 C119 1.382 . S
C118 H144 0.950 . S
C119 N116 1.332 . S
C119 C118 1.382 . S
C119 H130 0.952 . S
C120 C117 1.388 . S
C120 C121 1.382 . S
C120 H145 0.950 1_545 S
C121 N116 1.332 . S
C121 C120 1.382 . S
C121 H131 0.948 1_545 S
N122 Co100 2.282 . S
N122 C126 1.332 . S
N122 C127 1.332 . S
C123 C124 1.388 . S
C123 C127 1.382 . S
C123 H146 0.950 . S
C124 C123 1.388 . S
C124 C125 1.386 . S
C125 C124 1.386 . S
C125 C126 1.382 . S
C125 H147 0.950 1_545 S
C126 N122 1.332 . S
C126 C125 1.382 . S
C126 H128 0.952 1_545 S
C127 N122 1.332 . S
C127 C123 1.382 . S
C127 H129 0.948 . S
H128 C126 0.952 1_565 S
H129 C127 0.948 . S
H130 C119 0.952 . S
H131 C121 0.948 1_565 S
C132 C98 1.395 . S
C132 C102 1.391 . S
C133 C95 1.389 . S
C133 C115 1.392 . S
C134 C105 1.392 . S
C134 C107 1.389 . S
C135 C110 1.395 . S
C135 C112 1.391 . S
H136 C96 0.951 . S
H137 C97 0.950 . S
H138 C103 0.949 . S
H139 C104 0.950 . S
H140 C108 0.951 1_455 S
H141 C109 0.950 . S
H142 C113 0.949 . S
H143 C114 0.950 . S
H144 C118 0.950 . S
H145 C120 0.950 1_565 S
H146 C123 0.950 . S
H147 C125 0.950 1_565 S
C148 C149 1.443 . S
C148 N152 1.376 . S
C148 C186 1.389 . S
C149 C148 1.443 . S
C149 C150 1.340 . S
C149 H189 0.951 1_655 S
C150 C149 1.340 . S
C150 C151 1.439 . S
C150 H190 0.950 . S
C151 C150 1.439 . S
C151 N152 1.374 . S
C151 C185 1.395 . S
N152 C148 1.376 . S
N152 C151 1.374 . S
N152 Co153 2.008 . S
Co153 N152 2.008 . S
Co153 N154 1.995 . S
Co153 N159 2.008 . S
Co153 N164 1.995 . S
Co153 N169 2.282 . S
Co153 N175 2.282 . S
N154 Co153 1.995 . S
N154 C155 1.376 . S
N154 C158 1.383 . S
C155 N154 1.376 . S
C155 C156 1.446 . S
C155 C185 1.391 . S
C156 C155 1.446 . S
C156 C157 1.339 . S
C156 H191 0.949 . S
C157 C156 1.339 . S
C157 C158 1.439 . S
C157 H192 0.950 . S
C158 N154 1.383 . S
C158 C157 1.439 . S
C158 C187 1.392 . S
N159 Co153 2.008 . S
N159 C160 1.376 . S
N159 C163 1.374 . S
C160 N159 1.376 . S
C160 C161 1.443 . S
C160 C187 1.389 . S
C161 C160 1.443 . S
C161 C162 1.340 . S
C161 H193 0.951 . S
C162 C161 1.340 . S
C162 C163 1.439 . S
C162 H194 0.950 . S
C163 N159 1.374 . S
C163 C162 1.439 . S
C163 C188 1.395 . S
N164 Co153 1.995 . S
N164 C165 1.376 . S
N164 C168 1.383 . S
C165 N164 1.376 . S
C165 C166 1.446 . S
C165 C188 1.391 . S
C166 C165 1.446 . S
C166 C167 1.339 . S
C166 H195 0.949 . S
C167 C166 1.339 . S
C167 C168 1.439 . S
C167 H196 0.950 . S
C168 N164 1.383 . S
C168 C167 1.439 . S
C168 C186 1.392 . S
N169 Co153 2.282 . S
N169 C172 1.332 . S
N169 C174 1.332 . S
C170 C171 1.386 . S
C170 C173 1.388 . S
C171 C170 1.386 . S
C171 C172 1.382 . S
C171 H197 0.950 . S
C172 N169 1.332 . S
C172 C171 1.382 . S
C172 H183 0.952 . S
C173 C170 1.388 . S
C173 C174 1.382 . S
C173 H198 0.950 . S
C174 N169 1.332 . S
C174 C173 1.382 . S
C174 H184 0.948 . S
N175 Co153 2.282 . S
N175 C179 1.332 . S
N175 C180 1.332 . S
C176 C177 1.388 . S
C176 C180 1.382 . S
C176 H199 0.950 . S
C177 C176 1.388 . S
C177 C178 1.386 . S
C178 C177 1.386 . S
C178 C179 1.382 . S
C178 H200 0.950 . S
C179 N175 1.332 . S
C179 C178 1.382 . S
C179 H181 0.952 . S
C180 N175 1.332 . S
C180 C176 1.382 . S
C180 H182 0.948 . S
H181 C179 0.952 . S
H182 C180 0.948 . S
H183 C172 0.952 . S
H184 C174 0.948 . S
C185 C151 1.395 . S
C185 C155 1.391 . S
C186 C148 1.389 . S
C186 C168 1.392 . S
C187 C158 1.392 . S
C187 C160 1.389 . S
C188 C163 1.395 . S
C188 C165 1.391 . S
H189 C149 0.951 1_455 S
H190 C150 0.950 . S
H191 C156 0.949 . S
H192 C157 0.950 . S
H193 C161 0.951 . S
H194 C162 0.950 . S
H195 C166 0.949 . S
H196 C167 0.950 . S
H197 C171 0.950 . S
H198 C173 0.950 . S
H199 C176 0.950 . S
H200 C178 0.950 . S
C64 C0 1.466 . S
C25 C134 1.544 . S
C33 C186 1.522 . S
C11 C80 1.430 . S
C124 C14 1.491 . S
C37 C170 1.496 . S
C117 C28 1.485 . S
C9 C177 1.488 1_554 S
C71 C19 1.538 . S
C133 C39 1.518 . S
C187 C5 1.522 . S
C23 C81 1.569 . S
