# Generated by pormake.
# Topology rtl, (3,6)-cn, num edge types: 1
# Building blocks:
#     Node 0, Type 0, BuildingBlock: OLANEW_clean_sbu_2, # of connection points: 3
#     Node 1, Type 0, BuildingBlock: OLANEW_clean_sbu_2, # of connection points: 3
#     Node 2, Type 0, BuildingBlock: OLANEW_clean_sbu_2, # of connection points: 3
#     Node 3, Type 0, BuildingBlock: OLANEW_clean_sbu_2, # of connection points: 3
#     Node 4, Type 1, BuildingBlock: VOLQOD_clean_sbu_1, # of connection points: 6
#     Node 5, Type 1, BuildingBlock: VOLQOD_clean_sbu_1, # of connection points: 6
#     Edge 6, Type (0, 1), None
#     Edge 7, Type (0, 1), None
#     Edge 8, Type (0, 1), None
#     Edge 9, Type (0, 1), None
#     Edge 10, Type (0, 1), None
#     Edge 11, Type (0, 1), None
#     Edge 12, Type (0, 1), None
#     Edge 13, Type (0, 1), None
#     Edge 14, Type (0, 1), None
#     Edge 15, Type (0, 1), None
#     Edge 16, Type (0, 1), None
#     Edge 17, Type (0, 1), None
# Relax obj value: 0.062
# Max RMSD: 0.147
# Mean RMSD: 0.091
data_MOF--net-rtl--node1-OLANEW_clean_sbu_2--node2-VOLQOD_clean_sbu_1--edge1-none
_symmetry_space_group_name_H-M    P1
_symmetry_Int_Tables_number       1
_symmetry_cell_setting            triclinic
loop_
_symmetry_equiv_pos_as_xyz
'x, y, z'
_cell_length_a     19.533919
_cell_length_b     20.47697
_cell_length_c     12.239979
_cell_angle_alpha  84.092998
_cell_angle_beta   94.05409
_cell_angle_gamma 90.821055
loop_
_atom_site_label
_atom_site_type_symbol
_atom_site_fract_x
_atom_site_fract_y
_atom_site_fract_z
_atom_type_partial_charge
O0 O 0.17424 0.81379 0.84687 0.0
Cd1 Cd 0.21558 0.72977 -0.01059 0.0
O2 O 0.17795 0.89373 0.95491 0.0
Cd3 Cd 0.19802 0.83439 0.11164 0.0
O4 O 0.15397 0.85942 0.26093 0.0
C5 C 0.13967 0.92011 0.25467 0.0
O6 O 0.15455 0.95839 0.16658 0.0
C7 C 0.16662 0.8738 0.86049 0.0
C8 C 0.34479 0.67917 -0.03499 0.0
O9 O 0.29229 0.66329 0.90443 0.0
O10 O 0.33695 0.72072 0.03451 0.0
O11 O 0.68712 0.70554 0.77867 0.0
Cd12 Cd 0.72394 0.77152 0.61178 0.0
O13 O 0.71104 0.6301 0.67516 0.0
Cd14 Cd 0.71128 0.54145 0.59106 0.0
O15 O 0.69297 0.52028 0.41989 0.0
C16 C 0.65545 0.56354 0.36397 0.0
O17 O 0.63316 0.61235 0.41321 0.0
C18 C 0.68507 0.64543 0.76126 0.0
C19 C 0.83485 0.85879 0.60914 0.0
O20 O 0.77469 0.87773 0.62682 0.0
O21 O 0.84368 0.79784 0.59893 0.0
O22 O 0.82126 0.14496 0.23929 0.0
Cd23 Cd 0.75689 0.17826 0.06298 0.0
O24 O 0.91517 0.19168 0.17755 0.0
Cd25 Cd 0.86823 0.2214 0.01388 0.0
O26 O 0.88291 0.17907 0.86178 0.0
C27 C 0.9421 0.15365 0.86788 0.0
O28 O 0.98322 0.1589 -0.04371 0.0
C29 C 0.88478 0.15863 0.25361 0.0
C30 C 0.68079 0.29302 0.05039 0.0
O31 O 0.65354 0.23667 0.07569 0.0
O32 O 0.74479 0.2958 0.03344 0.0
O33 O 0.38797 0.33969 0.68094 0.0
Cd34 Cd 0.32075 0.30447 0.52089 0.0
O35 O 0.35068 0.44041 0.63182 0.0
Cd36 Cd 0.28726 0.41805 0.48753 0.0
O37 O 0.32771 0.44397 0.32951 0.0
C38 C 0.35695 0.40319 0.27716 0.0
O39 O 0.35501 0.34022 0.31039 0.0
C40 C 0.38802 0.40035 0.6953 0.0
C41 C 0.22685 0.20262 0.55174 0.0
O42 O 0.21326 0.26018 0.57598 0.0
O43 O 0.28542 0.19237 0.51606 0.0
O44 O 0.87923 0.96712 0.59994 0.0
Zn45 Zn 0.93564 0.05008 0.57412 0.0
O46 O 0.03272 0.0281 0.56512 0.0
Zn47 Zn 0.08716 0.05612 0.69214 0.0
Zn48 Zn 0.04248 0.93293 0.56118 0.0
Zn49 Zn 0.06659 0.07442 0.43289 0.0
O50 O 0.15936 0.12343 0.64949 0.0
O51 O 0.14273 0.13782 0.46713 0.0
O52 O 0.92357 0.10482 0.7003 0.0
O53 O 0.02745 0.09958 0.78776 0.0
O54 O 0.13197 0.97945 0.78375 0.0
O55 O 0.1042 0.8947 0.68914 0.0
O56 O 0.08515 0.91131 0.42316 0.0
O57 O 0.89669 0.10012 0.43198 0.0
O58 O 0.10393 0.01074 0.33866 0.0
O59 O 0.9905 0.12361 0.34221 0.0
C60 C 0.89144 0.90648 0.59592 0.0
C61 C 0.1744 0.1512 0.5565 0.0
C62 C 0.13505 0.91869 0.77105 0.0
C63 C 0.96526 0.11786 0.78007 0.0
C64 C 0.10793 0.94853 0.34377 0.0
C65 C 0.92606 0.1279 0.34963 0.0
O66 O 0.95051 0.8866 0.57641 0.0
O67 O 0.66758 0.40893 0.02671 0.0
Zn68 Zn 0.62967 0.50056 0.03168 0.0
O69 O 0.52939 0.49999 0.00769 0.0
Zn70 Zn 0.49776 0.54738 0.8686 0.0
Zn71 Zn 0.49581 0.40899 0.01582 0.0
Zn72 Zn 0.49088 0.5462 0.11922 0.0
O73 O 0.42156 0.61078 0.88852 0.0
O74 O 0.43941 0.62781 0.06387 0.0
O75 O 0.67006 0.56611 0.91432 0.0
O76 O 0.57866 0.59575 0.80042 0.0
O77 O 0.45156 0.48545 0.76967 0.0
O78 O 0.44428 0.39015 0.8738 0.0
O79 O 0.43079 0.38993 0.13582 0.0
O80 O 0.65763 0.52469 0.1871 0.0
O81 O 0.42201 0.48855 0.1941 0.0
O82 O 0.5611 0.56625 0.23593 0.0
C83 C 0.6389 0.35254 0.03971 0.0
C84 C 0.40793 0.64088 -0.02983 0.0
C85 C 0.43141 0.42593 0.78365 0.0
C86 C 0.64295 0.59865 0.82759 0.0
C87 C 0.40429 0.42855 0.19576 0.0
C88 C 0.62403 0.5519 0.25555 0.0
O89 O 0.57419 0.34594 0.04311 0.0
loop_
_geom_bond_atom_site_label_1
_geom_bond_atom_site_label_2
_geom_bond_distance
_geom_bond_site_symmetry_2
_ccdc_geom_bond_type
O0 Cd1 2.300 1_556 S
O0 C7 1.275 . S
Cd1 O0 2.300 1_554 S
Cd1 O9 2.381 1_554 S
Cd1 O10 2.378 . S
O2 Cd3 2.385 1_556 S
O2 C7 1.255 . S
Cd3 O2 2.385 1_554 S
Cd3 O4 2.317 . S
O4 Cd3 2.317 . S
O4 C5 1.232 . S
C5 O4 1.232 . S
C5 O6 1.218 . S
O6 C5 1.218 . S
C7 O0 1.275 . S
C7 O2 1.255 . S
C8 O9 1.258 1_554 S
C8 O10 1.256 . S
O9 Cd1 2.381 1_556 S
O9 C8 1.258 1_556 S
O10 Cd1 2.378 . S
O10 C8 1.256 . S
O11 Cd12 2.300 . S
O11 C18 1.275 . S
Cd12 O11 2.300 . S
Cd12 O20 2.381 . S
Cd12 O21 2.378 . S
O13 Cd14 2.385 . S
O13 C18 1.255 . S
Cd14 O13 2.385 . S
Cd14 O15 2.317 . S
O15 Cd14 2.317 . S
O15 C16 1.232 . S
C16 O15 1.232 . S
C16 O17 1.218 . S
O17 C16 1.218 . S
C18 O11 1.275 . S
C18 O13 1.255 . S
C19 O20 1.258 . S
C19 O21 1.256 . S
O20 Cd12 2.381 . S
O20 C19 1.258 . S
O21 Cd12 2.378 . S
O21 C19 1.256 . S
O22 Cd23 2.300 . S
O22 C29 1.275 . S
Cd23 O22 2.300 . S
Cd23 O31 2.381 . S
Cd23 O32 2.378 . S
O24 Cd25 2.385 . S
O24 C29 1.255 . S
Cd25 O24 2.385 . S
Cd25 O26 2.317 1_554 S
O26 Cd25 2.317 1_556 S
O26 C27 1.232 . S
C27 O26 1.232 . S
C27 O28 1.227 . S
O28 C27 1.227 . S
C29 O22 1.275 . S
C29 O24 1.255 . S
C30 O31 1.258 . S
C30 O32 1.256 . S
O31 Cd23 2.381 . S
O31 C30 1.258 . S
O32 Cd23 2.378 . S
O32 C30 1.256 . S
O33 Cd34 2.300 . S
O33 C40 1.275 . S
Cd34 O33 2.300 . S
Cd34 O42 2.381 . S
Cd34 O43 2.378 . S
O35 Cd36 2.385 . S
O35 C40 1.255 . S
Cd36 O35 2.385 . S
Cd36 O37 2.317 . S
O37 Cd36 2.317 . S
O37 C38 1.232 . S
C38 O37 1.232 . S
C38 O39 1.218 . S
O39 C38 1.218 . S
C40 O33 1.275 . S
C40 O35 1.255 . S
C41 O42 1.258 . S
C41 O43 1.256 . S
O42 Cd34 2.381 . S
O42 C41 1.258 . S
O43 Cd34 2.378 . S
O43 C41 1.256 . S
O44 Zn45 1.953 1_565 S
O44 C60 1.225 . S
Zn45 O44 1.953 1_545 S
Zn45 O46 1.949 1_655 S
Zn45 O52 1.919 . S
Zn45 O57 1.924 . S
O46 Zn45 1.949 1_455 S
O46 Zn47 1.923 . S
O46 Zn48 1.950 1_545 S
O46 Zn49 1.945 . S
Zn47 O46 1.923 . S
Zn47 O50 1.933 . S
Zn47 O53 1.941 . S
Zn47 O54 1.965 1_545 S
Zn48 O46 1.950 1_565 S
Zn48 O55 1.938 . S
Zn48 O56 1.906 . S
Zn48 O66 1.953 1_455 S
Zn49 O46 1.945 . S
Zn49 O51 1.932 . S
Zn49 O58 1.977 . S
Zn49 O59 1.910 1_455 S
O50 Zn47 1.933 . S
O50 C61 1.226 . S
O51 Zn49 1.932 . S
O51 C61 1.307 . S
O52 Zn45 1.919 . S
O52 C63 1.253 . S
O53 Zn47 1.941 . S
O53 C63 1.283 1_455 S
O54 Zn47 1.965 1_565 S
O54 C62 1.303 . S
O55 Zn48 1.938 . S
O55 C62 1.247 . S
O56 Zn48 1.906 . S
O56 C64 1.304 . S
O57 Zn45 1.924 . S
O57 C65 1.311 . S
O58 Zn49 1.977 . S
O58 C64 1.272 1_545 S
O59 Zn49 1.910 1_655 S
O59 C65 1.231 . S
C60 O44 1.225 . S
C60 O66 1.298 . S
C61 O50 1.226 . S
C61 O51 1.307 . S
C62 O54 1.303 . S
C62 O55 1.247 . S
C63 O52 1.253 . S
C63 O53 1.283 1_655 S
C64 O56 1.304 . S
C64 O58 1.272 1_565 S
C65 O57 1.311 . S
C65 O59 1.231 . S
O66 Zn48 1.953 1_655 S
O66 C60 1.298 . S
O67 Zn68 1.953 . S
O67 C83 1.225 . S
Zn68 O67 1.953 . S
Zn68 O69 1.949 . S
Zn68 O75 1.919 1_554 S
Zn68 O80 1.924 . S
O69 Zn68 1.949 . S
O69 Zn70 1.923 1_554 S
O69 Zn71 1.950 . S
O69 Zn72 1.945 . S
Zn70 O69 1.923 1_556 S
Zn70 O73 1.933 . S
Zn70 O76 1.941 . S
Zn70 O77 1.965 . S
Zn71 O69 1.950 . S
Zn71 O78 1.938 1_554 S
Zn71 O79 1.906 . S
Zn71 O89 1.953 . S
Zn72 O69 1.945 . S
Zn72 O74 1.932 . S
Zn72 O81 1.977 . S
Zn72 O82 1.910 . S
O73 Zn70 1.933 . S
O73 C84 1.226 1_556 S
O74 Zn72 1.932 . S
O74 C84 1.307 . S
O75 Zn68 1.919 1_556 S
O75 C86 1.253 . S
O76 Zn70 1.941 . S
O76 C86 1.283 . S
O77 Zn70 1.965 . S
O77 C85 1.303 . S
O78 Zn71 1.938 1_556 S
O78 C85 1.247 . S
O79 Zn71 1.906 . S
O79 C87 1.304 . S
O80 Zn68 1.924 . S
O80 C88 1.311 . S
O81 Zn72 1.977 . S
O81 C87 1.272 . S
O82 Zn72 1.910 . S
O82 C88 1.231 . S
C83 O67 1.225 . S
C83 O89 1.298 . S
C84 O73 1.226 1_554 S
C84 O74 1.307 . S
C85 O77 1.303 . S
C85 O78 1.247 . S
C86 O75 1.253 . S
C86 O76 1.283 . S
C87 O79 1.304 . S
C87 O81 1.272 . S
C88 O80 1.311 . S
C88 O82 1.231 . S
O89 Zn71 1.953 . S
O89 C83 1.298 . S
C61 C41 1.560 . S
C8 C84 1.492 . S
C19 C60 1.594 . S
C30 C83 1.658 . S
C64 C5 1.192 . S
C86 C18 1.959 . S
C29 C65 1.693 . S
C40 C85 1.769 . S
C88 C16 1.145 . S
C63 C27 1.060 . S
C87 C38 0.996 . S
C7 C62 1.498 . S
