# Generated by pormake.
# Topology pth, (4,4)-cn, num edge types: 1
# Building blocks:
#     Node 0, Type 0, BuildingBlock: CEKHIL_clean_sbu_0, # of connection points: 4
#     Node 1, Type 0, BuildingBlock: CEKHIL_clean_sbu_0, # of connection points: 4
#     Node 2, Type 0, BuildingBlock: CEKHIL_clean_sbu_0, # of connection points: 4
#     Node 3, Type 1, BuildingBlock: MUDLON_clean_sbu_0, # of connection points: 4
#     Node 4, Type 1, BuildingBlock: MUDLON_clean_sbu_0, # of connection points: 4
#     Node 5, Type 1, BuildingBlock: MUDLON_clean_sbu_0, # of connection points: 4
#     Edge 6, Type (0, 1), BuildingBlock: AJUNOK_clean_linker_0, # of connection points: 2
#     Edge 7, Type (0, 1), BuildingBlock: AJUNOK_clean_linker_0, # of connection points: 2
#     Edge 8, Type (0, 1), BuildingBlock: AJUNOK_clean_linker_0, # of connection points: 2
#     Edge 9, Type (0, 1), BuildingBlock: AJUNOK_clean_linker_0, # of connection points: 2
#     Edge 10, Type (0, 1), BuildingBlock: AJUNOK_clean_linker_0, # of connection points: 2
#     Edge 11, Type (0, 1), BuildingBlock: AJUNOK_clean_linker_0, # of connection points: 2
#     Edge 12, Type (0, 1), BuildingBlock: AJUNOK_clean_linker_0, # of connection points: 2
#     Edge 13, Type (0, 1), BuildingBlock: AJUNOK_clean_linker_0, # of connection points: 2
#     Edge 14, Type (0, 1), BuildingBlock: AJUNOK_clean_linker_0, # of connection points: 2
#     Edge 15, Type (0, 1), BuildingBlock: AJUNOK_clean_linker_0, # of connection points: 2
#     Edge 16, Type (0, 1), BuildingBlock: AJUNOK_clean_linker_0, # of connection points: 2
#     Edge 17, Type (0, 1), BuildingBlock: AJUNOK_clean_linker_0, # of connection points: 2
# Relax obj value: 0.014
# Max RMSD: 0.063
# Mean RMSD: 0.051
data_MOF--net-pth--node1-CEKHIL_clean_sbu_0--node2-MUDLON_clean_sbu_0--edge1-AJUNOK_clean_linker_0
_symmetry_space_group_name_H-M    P1
_symmetry_Int_Tables_number       1
_symmetry_cell_setting            triclinic
loop_
_symmetry_equiv_pos_as_xyz
'x, y, z'
_cell_length_a     16.64405
_cell_length_b     16.700191
_cell_length_c     44.148911
_cell_angle_alpha  90.862026
_cell_angle_beta   90.140464
_cell_angle_gamma 120.3148
loop_
_atom_site_label
_atom_site_type_symbol
_atom_site_fract_x
_atom_site_fract_y
_atom_site_fract_z
_atom_type_partial_charge
Co0 Co 0.06293 0.08452 0.12655 0.0
O1 O 0.99153 0.99647 0.15734 0.0
O2 O 0.11334 1.0046 0.13466 0.0
C3 C 0.07151 0.20606 0.15268 0.0
O4 O 0.15928 0.16561 0.0953 0.0
Co5 Co 1.00354 0.20635 0.09247 0.0
O6 O 0.13491 0.27841 0.07935 0.0
C7 C 0.91722 1.00601 0.07617 0.0
C8 C 0.05066 0.96751 0.15548 0.0
C9 C 0.1847 0.24059 0.08068 0.0
O10 O 0.97605 0.99892 0.09349 0.0
O11 O 0.91363 0.08066 0.07453 0.0
O12 O 0.12923 0.17734 0.15857 0.0
O13 O 0.00999 0.16038 0.13185 0.0
Co14 Co 0.04776 0.07902 0.43734 0.0
O15 O 0.98206 0.10933 0.40794 0.0
O16 O 0.11067 0.21229 0.4319 0.0
C17 C 0.0425 0.96308 0.40867 0.0
O18 O 0.1396 0.07707 0.46792 0.0
Co19 Co 0.96226 0.88575 0.46671 0.0
O20 O 0.09168 0.9299 0.48034 0.0
C21 C 0.9013 0.01712 0.4864 0.0
C22 C 0.04767 0.19531 0.41137 0.0
C23 C 0.15247 0.01601 0.48102 0.0
O24 O 0.96706 0.0826 0.47104 0.0
O25 O 0.88439 0.93328 0.48553 0.0
O26 O 0.1063 0.04869 0.40418 0.0
O27 O 0.98239 0.95053 0.42914 0.0
Co28 Co 0.04439 0.05885 0.77238 0.0
O29 O 0.1375 0.11561 0.74128 0.0
O30 O 0.11531 0.99676 0.76886 0.0
C31 C 0.92878 0.05458 0.74371 0.0
O32 O 0.95557 0.97413 0.80449 0.0
Co33 Co 0.93698 0.14351 0.80176 0.0
O34 O 0.87051 0.02903 0.82573 0.0
C35 C 0.13282 0.21475 0.81964 0.0
C36 C 0.15953 0.05291 0.74705 0.0
C37 C 0.89397 0.96761 0.82332 0.0
O38 O 0.1329 0.14809 0.80446 0.0
O39 O 0.06403 0.2287 0.81917 0.0
O40 O 0.95092 0.99045 0.74099 0.0
O41 O 0.97803 0.12029 0.76309 0.0
Mg42 Mg 0.07332 0.5914 0.28254 0.0
C43 C 0.05817 0.45893 0.3238 0.0
O44 O 0.97639 0.43931 0.31302 0.0
C45 C 0.05734 0.71144 0.24252 0.0
O46 O 0.97501 0.64256 0.24981 0.0
C47 C 0.05107 0.48754 0.22468 0.0
O48 O 0.11506 0.57167 0.21725 0.0
O49 O 0.0108 0.47503 0.25013 0.0
O50 O 0.12989 0.53216 0.31443 0.0
O51 O 0.99642 0.63372 0.31255 0.0
C52 C 0.03003 0.66132 0.33915 0.0
O53 O 0.0956 0.64621 0.34893 0.0
O54 O 0.12936 0.7125 0.25321 0.0
Mg55 Mg 0.54972 0.08372 0.61613 0.0
C56 C 0.43801 0.07175 0.5673 0.0
O57 O 0.42473 0.99024 0.57501 0.0
C58 C 0.67156 0.06479 0.65588 0.0
O59 O 0.60952 0.98374 0.64424 0.0
C60 C 0.43478 0.02926 0.67329 0.0
O61 O 0.51824 0.07446 0.68558 0.0
O62 O 0.42637 0.01294 0.64479 0.0
O63 O 0.4969 0.14287 0.58277 0.0
O64 O 0.60256 0.02182 0.58358 0.0
C65 C 0.67153 0.08802 0.57022 0.0
O66 O 0.69407 0.17336 0.57767 0.0
O67 O 0.66751 0.13609 0.64803 0.0
Mg68 Mg 0.56856 0.55882 0.95108 0.0
C69 C 0.44189 0.43549 0.90354 0.0
O70 O 0.51041 0.41785 0.90447 0.0
C71 C 0.68187 0.6922 0.99534 0.0
O72 O 0.7098 0.63202 0.99111 0.0
C73 C 0.46309 0.38059 0.98766 0.0
O74 O 0.42093 0.34298 0.9618 0.0
O75 O 0.53683 0.46003 0.98771 0.0
O76 O 0.44497 0.49705 0.92176 0.0
O77 O 0.68902 0.62104 0.92089 0.0
C78 C 0.67469 0.64544 0.8951 0.0
O79 O 0.58915 0.61894 0.8867 0.0
O80 O 0.61176 0.68111 0.97994 0.0
C81 C 0.05099 0.34356 0.15769 0.0
C82 C 0.06596 0.27679 0.17147 0.0
C83 C 0.04271 0.40987 0.17518 0.0
C84 C 0.04498 0.40895 0.20701 0.0
H85 H 0.04782 0.34584 0.13323 0.0
H86 H 0.03535 0.46281 0.16374 0.0
S87 S 0.07713 0.24472 0.25398 0.0
N88 N 0.08038 0.21202 0.2187 0.0
N89 N 0.06094 0.33424 0.25161 0.0
C90 C 0.05675 0.34051 0.22105 0.0
C91 C 0.06826 0.27499 0.20324 0.0
C92 C 0.76564 0.96467 0.52143 0.0
C93 C 0.84217 0.03786 0.50666 0.0
C94 C 0.71014 0.98114 0.54149 0.0
C95 C 0.72853 0.07156 0.54777 0.0
H96 H 0.74831 0.89343 0.51771 0.0
H97 H 0.65301 0.92241 0.55241 0.0
S98 S 0.91847 0.28803 0.5145 0.0
N99 N 0.93168 0.20453 0.49937 0.0
N100 N 0.82774 0.23578 0.53689 0.0
C101 C 0.80384 0.14552 0.53282 0.0
C102 C 0.86041 0.12865 0.51234 0.0
C103 C 0.81339 0.79592 0.8304 0.0
C104 C 0.84911 0.88563 0.84296 0.0
C105 C 0.76254 0.7169 0.84812 0.0
C106 C 0.74938 0.7251 0.87921 0.0
H107 H 0.82035 0.78671 0.8064 0.0
H108 H 0.7299 0.64902 0.83718 0.0
S109 S 0.83638 0.9442 0.92351 0.0
N110 N 0.87223 0.97807 0.88867 0.0
N111 N 0.78011 0.82962 0.92213 0.0
C112 C 0.78968 0.81434 0.89238 0.0
C113 C 0.83875 0.89466 0.8742 0.0
C114 C 0.12308 0.8794 0.17726 0.0
C115 C 0.05219 0.90238 0.17789 0.0
C116 C 0.12785 0.82101 0.19904 0.0
C117 C 0.06146 0.78301 0.22206 0.0
H118 H 0.17531 0.90653 0.15978 0.0
H119 H 0.18192 0.80324 0.19726 0.0
S120 S 0.86632 0.82637 0.23542 0.0
N121 N 0.91732 0.88571 0.20484 0.0
N122 N 0.926 0.77633 0.24527 0.0
C123 C 0.99174 0.80708 0.22335 0.0
C124 C 0.9871 0.86653 0.20141 0.0
C125 C 0.27497 0.98545 0.49982 0.0
C126 C 0.23856 0.04506 0.49906 0.0
C127 C 0.34486 1.0 0.52053 0.0
C128 C 0.38103 0.07422 0.54175 0.0
H129 H 0.24661 0.92467 0.48503 0.0
H130 H 0.36763 0.9496 0.5208 0.0
S131 S 0.31596 0.25592 0.54729 0.0
N132 N 0.24935 0.1863 0.51952 0.0
N133 N 0.38059 0.21283 0.55902 0.0
C134 C 0.35009 0.13833 0.53995 0.0
C135 C 0.27877 0.12384 0.51848 0.0
C136 C 0.28318 0.25341 0.84535 0.0
C137 C 0.21346 0.27562 0.8399 0.0
C138 C 0.35656 0.30595 0.86578 0.0
C139 C 0.36363 0.38305 0.88174 0.0
H140 H 0.28055 0.19395 0.83417 0.0
H141 H 0.40757 0.28482 0.86932 0.0
S142 S 0.20325 0.4752 0.87437 0.0
N143 N 0.15923 0.38394 0.85126 0.0
N144 N 0.29694 0.48169 0.88969 0.0
C145 C 0.29572 0.40747 0.87613 0.0
C146 C 0.22091 0.35416 0.85522 0.0
C147 C 0.8113 0.98615 0.70177 0.0
C148 C 0.86175 0.05943 0.72257 0.0
C149 C 0.75163 0.99011 0.68026 0.0
C150 C 0.7397 0.0677 0.67836 0.0
H151 H 0.81815 0.925 0.70192 0.0
H152 H 0.7147 0.93132 0.66484 0.0
S153 S 0.85474 0.27826 0.72777 0.0
N154 N 0.89531 0.21242 0.74015 0.0
N155 N 0.78281 0.2195 0.69946 0.0
C156 C 0.78957 0.14177 0.69898 0.0
C157 C 0.85036 0.13758 0.72116 0.0
C158 C 0.85952 0.84516 0.05537 0.0
C159 C 0.85196 0.92526 0.0565 0.0
C160 C 0.80264 0.77012 0.03604 0.0
C161 C 0.73514 0.77118 1.01693 0.0
H162 H 0.91087 0.84052 0.06917 0.0
H163 H 0.81278 0.71094 0.03593 0.0
S164 S 0.68291 0.96167 1.01197 0.0
N165 N 0.76791 0.99923 0.03734 0.0
N166 N 0.66166 0.85775 1.00105 0.0
C167 C 0.72474 0.84946 1.01829 0.0
C168 C 0.78293 0.92646 0.03799 0.0
C169 C 0.01242 0.80116 0.4041 0.0
C170 C 0.03426 0.88489 0.39023 0.0
C171 C 1.00625 0.72655 0.38709 0.0
C172 C 0.01766 0.73185 0.3555 0.0
H173 H 1.00335 0.79446 0.4284 0.0
H174 H 0.99449 0.66501 0.39878 0.0
S175 S 0.069 0.93349 0.30817 0.0
N176 N 0.06389 0.96783 0.34305 0.0
N177 N 0.04842 0.8262 0.31089 0.0
C178 C 0.03535 0.81374 0.34121 0.0
C179 C 0.04469 0.89071 0.35865 0.0
C180 C 0.23534 0.06247 0.69733 0.0
C181 C 0.22704 0.04169 0.72834 0.0
C182 C 0.298 0.05134 0.67898 0.0
C183 C 0.35612 0.02113 0.69119 0.0
H184 H 0.1931 0.08758 0.68713 0.0
H185 H 0.30414 0.07086 0.65544 0.0
S186 S 0.36005 0.9556 0.77079 0.0
N187 N 0.2796 0.98578 0.77012 0.0
N188 N 0.4001 0.96876 0.73593 0.0
C189 C 0.34749 0.99883 0.72201 0.0
C190 C 0.28221 0.00802 0.74052 0.0
C191 C 0.28016 0.21637 0.042 0.0
C192 C 0.26799 0.27723 0.06127 0.0
C193 C 0.34811 0.25027 1.01935 0.0
C194 C 0.40835 0.34613 1.01581 0.0
H195 H 0.23286 0.14218 0.0431 0.0
H196 H 0.3509 0.20125 1.00366 0.0
S197 S 0.4115 0.53385 0.06293 0.0
N198 N 0.32556 0.43725 0.07682 0.0
N199 N 0.45571 0.50118 0.0352 0.0
C200 C 0.40115 0.40739 0.03644 0.0
C201 C 0.33025 0.3729 0.0589 0.0
C202 C 0.97802 0.24465 0.37102 0.0
C203 C 0.0533 0.26751 0.3907 0.0
C204 C 0.98193 0.30698 0.34951 0.0
C205 C 0.06144 0.39546 0.34643 0.0
H206 H 0.91515 0.17738 0.37199 0.0
H207 H 0.92148 0.28473 0.33499 0.0
S208 S 0.27813 0.49069 0.3925 0.0
N209 N 0.21055 0.38573 0.40589 0.0
N210 N 0.21757 0.50335 0.3652 0.0
C211 C 0.13761 0.41988 0.36593 0.0
C212 C 0.13349 0.35603 0.38816 0.0
loop_
_geom_bond_atom_site_label_1
_geom_bond_atom_site_label_2
_geom_bond_distance
_geom_bond_site_symmetry_2
_ccdc_geom_bond_type
Co0 O1 2.216 1_445 S
Co0 O2 2.091 1_545 S
Co0 O4 2.004 . S
Co0 O10 2.021 1_445 S
Co0 O12 2.137 . S
Co0 O13 2.244 1_455 S
O1 Co0 2.216 1_665 S
O1 C8 1.247 1_655 S
O2 Co0 2.091 1_565 S
O2 C8 1.261 . S
C3 O12 1.247 . S
C3 O13 1.272 1_455 S
O4 Co0 2.004 . S
O4 C9 1.259 . S
Co5 O6 2.061 1_655 S
Co5 O11 2.052 . S
Co5 O13 2.135 . S
O6 Co5 2.061 1_455 S
O6 C9 1.235 . S
C7 O10 1.238 . S
C7 O11 1.241 1_565 S
C8 O1 1.247 1_455 S
C8 O2 1.261 . S
C9 O4 1.259 . S
C9 O6 1.235 . S
O10 Co0 2.021 1_665 S
O10 C7 1.238 . S
O11 Co5 2.052 . S
O11 C7 1.241 1_545 S
O12 Co0 2.137 . S
O12 C3 1.247 . S
O13 Co0 2.244 1_655 S
O13 C3 1.272 1_655 S
O13 Co5 2.135 . S
Co14 O15 2.216 1_455 S
Co14 O16 2.091 . S
Co14 O18 2.004 . S
Co14 O24 2.031 . S
Co14 O26 2.137 . S
Co14 O27 2.244 1_545 S
O15 Co14 2.216 1_655 S
O15 C22 1.247 1_655 S
O16 Co14 2.091 . S
O16 C22 1.261 . S
C17 O26 1.247 1_565 S
C17 O27 1.272 . S
O18 Co14 2.004 . S
O18 C23 1.259 . S
Co19 O20 2.061 1_655 S
Co19 O25 2.052 . S
Co19 O27 2.135 1_655 S
O20 Co19 2.061 1_455 S
O20 C23 1.235 1_565 S
C21 O24 1.230 1_655 S
C21 O25 1.241 1_545 S
C22 O15 1.247 1_455 S
C22 O16 1.261 . S
C23 O18 1.259 . S
C23 O20 1.235 1_545 S
O24 Co14 2.031 . S
O24 C21 1.230 1_455 S
O25 Co19 2.052 . S
O25 C21 1.241 1_565 S
O26 Co14 2.137 . S
O26 C17 1.247 1_545 S
O27 Co14 2.244 1_565 S
O27 C17 1.272 . S
O27 Co19 2.135 1_455 S
Co28 O29 2.216 . S
Co28 O30 2.091 1_545 S
Co28 O32 2.004 1_445 S
Co28 O38 2.021 . S
Co28 O40 2.137 1_445 S
Co28 O41 2.244 1_455 S
O29 Co28 2.216 . S
O29 C36 1.247 . S
O30 Co28 2.091 1_565 S
O30 C36 1.261 1_565 S
C31 O40 1.247 1_545 S
C31 O41 1.272 . S
O32 Co28 2.004 1_665 S
O32 C37 1.259 . S
Co33 O34 2.061 . S
Co33 O39 2.052 1_655 S
Co33 O41 2.135 . S
O34 Co33 2.061 . S
O34 C37 1.235 1_545 S
C35 O38 1.238 . S
C35 O39 1.241 . S
C36 O29 1.247 . S
C36 O30 1.261 1_545 S
C37 O32 1.259 . S
C37 O34 1.235 1_565 S
O38 Co28 2.021 . S
O38 C35 1.238 . S
O39 Co33 2.052 1_455 S
O39 C35 1.241 . S
O40 Co28 2.137 1_665 S
O40 C31 1.247 1_565 S
O41 Co28 2.244 1_655 S
O41 C31 1.272 . S
O41 Co33 2.135 . S
Mg42 O49 2.141 . S
Mg42 O50 2.048 . S
Mg42 O51 2.048 . S
Mg42 O54 2.141 . S
C43 O44 1.313 1_455 S
C43 O50 1.195 . S
O44 C43 1.313 1_655 S
C45 O46 1.245 1_455 S
C45 O54 1.289 . S
O46 C45 1.245 1_655 S
C47 O48 1.245 1_455 S
C47 O49 1.289 . S
O48 C47 1.245 1_655 S
O49 Mg42 2.141 . S
O49 C47 1.289 . S
O50 Mg42 2.048 . S
O50 C43 1.195 . S
O51 Mg42 2.048 . S
O51 C52 1.195 . S
C52 O51 1.195 . S
C52 O53 1.313 1_455 S
O53 C52 1.313 1_655 S
O54 Mg42 2.141 . S
O54 C45 1.289 . S
Mg55 O62 2.141 . S
Mg55 O63 2.048 . S
Mg55 O64 2.048 . S
Mg55 O67 2.141 . S
C56 O57 1.313 1_545 S
C56 O63 1.195 . S
O57 C56 1.313 1_565 S
C58 O59 1.245 1_545 S
C58 O67 1.289 . S
O59 C58 1.245 1_565 S
C60 O61 1.245 1_545 S
C60 O62 1.289 . S
O61 C60 1.245 1_565 S
O62 Mg55 2.141 . S
O62 C60 1.289 . S
O63 Mg55 2.048 . S
O63 C56 1.195 . S
O64 Mg55 2.048 . S
O64 C65 1.195 . S
C65 O64 1.195 . S
C65 O66 1.313 1_545 S
O66 C65 1.313 1_565 S
O67 Mg55 2.141 . S
O67 C58 1.289 . S
Mg68 O75 2.141 . S
Mg68 O76 2.048 . S
Mg68 O77 2.048 . S
Mg68 O80 2.141 . S
C69 O70 1.313 . S
C69 O76 1.195 . S
O70 C69 1.313 . S
C71 O72 1.245 . S
C71 O80 1.289 . S
O72 C71 1.245 . S
C73 O74 1.245 . S
C73 O75 1.289 . S
O74 C73 1.245 . S
O75 Mg68 2.141 . S
O75 C73 1.289 . S
O76 Mg68 2.048 . S
O76 C69 1.195 . S
O77 Mg68 2.048 . S
O77 C78 1.195 . S
C78 O77 1.195 . S
C78 O79 1.313 . S
O79 C78 1.313 . S
O80 Mg68 2.141 . S
O80 C71 1.289 . S
C81 C82 1.369 . S
C81 C83 1.419 . S
C81 H85 0.930 1_455 S
C82 C81 1.369 . S
C82 C91 1.429 . S
C83 C81 1.419 . S
C83 C84 1.363 . S
C83 H86 0.929 1_455 S
C84 C83 1.363 . S
C84 C90 1.428 . S
H85 C81 0.930 1_655 S
H86 C83 0.929 1_655 S
S87 N88 1.613 . S
S87 N89 1.610 . S
N88 S87 1.613 . S
N88 C91 1.350 . S
N89 S87 1.610 . S
N89 C90 1.351 . S
C90 C84 1.428 . S
C90 N89 1.351 . S
C90 C91 1.434 . S
C91 C82 1.429 . S
C91 N88 1.350 . S
C91 C90 1.434 . S
C92 C93 1.369 . S
C92 C94 1.419 . S
C92 H96 0.930 . S
C93 C92 1.369 . S
C93 C102 1.429 . S
C94 C92 1.419 . S
C94 C95 1.363 . S
C94 H97 0.929 . S
C95 C94 1.363 . S
C95 C101 1.428 . S
H96 C92 0.930 . S
H97 C94 0.929 . S
S98 N99 1.613 . S
S98 N100 1.610 . S
N99 S98 1.613 . S
N99 C102 1.350 . S
N100 S98 1.610 . S
N100 C101 1.351 . S
C101 C95 1.428 . S
C101 N100 1.351 . S
C101 C102 1.434 . S
C102 C93 1.429 . S
C102 N99 1.350 . S
C102 C101 1.434 . S
C103 C104 1.369 . S
C103 C105 1.419 . S
C103 H107 0.930 . S
C104 C103 1.369 . S
C104 C113 1.429 . S
C105 C103 1.419 . S
C105 C106 1.363 . S
C105 H108 0.929 . S
C106 C105 1.363 . S
C106 C112 1.428 . S
H107 C103 0.930 . S
H108 C105 0.929 . S
S109 N110 1.613 . S
S109 N111 1.610 . S
N110 S109 1.613 . S
N110 C113 1.350 . S
N111 S109 1.610 . S
N111 C112 1.351 . S
C112 C106 1.428 . S
C112 N111 1.351 . S
C112 C113 1.434 . S
C113 C104 1.429 . S
C113 N110 1.350 . S
C113 C112 1.434 . S
C114 C115 1.369 . S
C114 C116 1.419 . S
C114 H118 0.930 . S
C115 C114 1.369 . S
C115 C124 1.429 . S
C116 C114 1.419 . S
C116 C117 1.363 . S
C116 H119 0.929 . S
C117 C116 1.363 . S
C117 C123 1.428 . S
H118 C114 0.930 . S
H119 C116 0.929 . S
S120 N121 1.613 . S
S120 N122 1.610 . S
N121 S120 1.613 . S
N121 C124 1.350 1_655 S
N122 S120 1.610 . S
N122 C123 1.351 1_655 S
C123 C117 1.428 . S
C123 N122 1.351 1_455 S
C123 C124 1.434 . S
C124 C115 1.429 . S
C124 N121 1.350 1_455 S
C124 C123 1.434 . S
C125 C126 1.369 . S
C125 C127 1.419 . S
C125 H129 0.930 1_545 S
C126 C125 1.369 . S
C126 C135 1.429 . S
C127 C125 1.419 . S
C127 C128 1.363 . S
C127 H130 0.929 1_545 S
C128 C127 1.363 . S
C128 C134 1.428 . S
H129 C125 0.930 1_565 S
H130 C127 0.929 1_565 S
S131 N132 1.613 . S
S131 N133 1.610 . S
N132 S131 1.613 . S
N132 C135 1.350 . S
N133 S131 1.610 . S
N133 C134 1.351 . S
C134 C128 1.428 . S
C134 N133 1.351 . S
C134 C135 1.434 . S
C135 C126 1.429 . S
C135 N132 1.350 . S
C135 C134 1.434 . S
C136 C137 1.369 . S
C136 C138 1.419 . S
C136 H140 0.930 . S
C137 C136 1.369 . S
C137 C146 1.429 . S
C138 C136 1.419 . S
C138 C139 1.363 . S
C138 H141 0.929 . S
C139 C138 1.363 . S
C139 C145 1.428 . S
H140 C136 0.930 . S
H141 C138 0.929 . S
S142 N143 1.613 . S
S142 N144 1.610 . S
N143 S142 1.613 . S
N143 C146 1.350 . S
N144 S142 1.610 . S
N144 C145 1.351 . S
C145 C139 1.428 . S
C145 N144 1.351 . S
C145 C146 1.434 . S
C146 C137 1.429 . S
C146 N143 1.350 . S
C146 C145 1.434 . S
C147 C148 1.369 1_565 S
C147 C149 1.419 . S
C147 H151 0.930 . S
C148 C147 1.369 1_545 S
C148 C157 1.429 . S
C149 C147 1.419 . S
C149 C150 1.363 1_565 S
C149 H152 0.929 . S
C150 C149 1.363 1_545 S
C150 C156 1.428 . S
H151 C147 0.930 . S
H152 C149 0.929 . S
S153 N154 1.613 . S
S153 N155 1.610 . S
N154 S153 1.613 . S
N154 C157 1.350 . S
N155 S153 1.610 . S
N155 C156 1.351 . S
C156 C150 1.428 . S
C156 N155 1.351 . S
C156 C157 1.434 . S
C157 C148 1.429 . S
C157 N154 1.350 . S
C157 C156 1.434 . S
C158 C159 1.369 . S
C158 C160 1.419 1_554 S
C158 H162 0.930 . S
C159 C158 1.369 . S
C159 C168 1.429 . S
C160 C158 1.419 1_556 S
C160 C161 1.363 . S
C160 H163 0.929 . S
C161 C160 1.363 . S
C161 C167 1.428 1_556 S
H162 C158 0.930 . S
H163 C160 0.929 . S
S164 N165 1.613 . S
S164 N166 1.610 . S
N165 S164 1.613 . S
N165 C168 1.350 . S
N166 S164 1.610 . S
N166 C167 1.351 . S
C167 C161 1.428 1_554 S
C167 N166 1.351 . S
C167 C168 1.434 . S
C168 C159 1.429 . S
C168 N165 1.350 . S
C168 C167 1.434 . S
C169 C170 1.369 1_655 S
C169 C171 1.419 . S
C169 H173 0.930 . S
C170 C169 1.369 1_455 S
C170 C179 1.429 . S
C171 C169 1.419 . S
C171 C172 1.363 1_655 S
C171 H174 0.929 . S
C172 C171 1.363 1_455 S
C172 C178 1.428 . S
H173 C169 0.930 . S
H174 C171 0.929 . S
S175 N176 1.616 . S
S175 N177 1.610 . S
N176 S175 1.616 . S
N176 C179 1.357 . S
N177 S175 1.610 . S
N177 C178 1.351 . S
C178 C172 1.428 . S
C178 N177 1.351 . S
C178 C179 1.434 . S
C179 C170 1.429 . S
C179 N176 1.357 . S
C179 C178 1.434 . S
C180 C181 1.369 . S
C180 C182 1.419 . S
C180 H184 0.930 . S
C181 C180 1.369 . S
C181 C190 1.429 1_545 S
C182 C180 1.419 . S
C182 C183 1.363 . S
C182 H185 0.929 . S
C183 C182 1.363 . S
C183 C189 1.428 1_545 S
H184 C180 0.930 . S
H185 C182 0.929 . S
S186 N187 1.613 . S
S186 N188 1.610 . S
N187 S186 1.613 . S
N187 C190 1.350 . S
N188 S186 1.610 . S
N188 C189 1.351 . S
C189 C183 1.428 1_565 S
C189 N188 1.351 . S
C189 C190 1.434 . S
C190 C181 1.429 1_565 S
C190 N187 1.350 . S
C190 C189 1.434 . S
C191 C192 1.369 . S
C191 C193 1.419 1_554 S
C191 H195 0.929 1_554 S
C192 C191 1.369 . S
C192 C201 1.429 . S
C193 C191 1.419 1_556 S
C193 C194 1.363 . S
C193 H196 0.929 . S
C194 C193 1.363 . S
C194 C200 1.428 1_556 S
H195 C191 0.929 1_556 S
H196 C193 0.929 . S
S197 N198 1.613 . S
S197 N199 1.610 . S
N198 S197 1.613 . S
N198 C201 1.350 . S
N199 S197 1.610 . S
N199 C200 1.351 . S
C200 C194 1.428 1_554 S
C200 N199 1.351 . S
C200 C201 1.434 . S
C201 C192 1.429 . S
C201 N198 1.350 . S
C201 C200 1.434 . S
C202 C203 1.363 1_655 S
C202 C204 1.424 . S
C202 H206 0.931 . S
C203 C202 1.363 1_455 S
C203 C212 1.429 . S
C204 C202 1.424 . S
C204 C205 1.363 1_655 S
C204 H207 0.929 . S
C205 C204 1.363 1_455 S
C205 C211 1.428 . S
H206 C202 0.931 . S
H207 C204 0.929 . S
S208 N209 1.613 . S
S208 N210 1.610 . S
N209 S208 1.613 . S
N209 C212 1.350 . S
N210 S208 1.610 . S
N210 C211 1.351 . S
C211 C205 1.428 . S
C211 N210 1.351 . S
C211 C212 1.434 . S
C212 C203 1.429 . S
C212 N209 1.350 . S
C212 C211 1.434 . S
C84 C47 1.435 . S
C82 C3 1.436 . S
C93 C21 1.503 . S
C95 C65 1.524 . S
C104 C37 1.482 . S
C106 C78 1.499 . S
C115 C8 1.443 . S
C117 C45 1.441 . S
C128 C56 1.498 . S
C126 C23 1.478 . S
C137 C35 1.479 . S
C139 C69 1.499 . S
C150 C58 1.443 . S
C148 C31 1.443 . S
C159 C7 1.423 . S
C161 C71 1.437 . S
C172 C52 1.496 . S
C170 C17 1.494 . S
C183 C60 1.401 . S
C181 C36 1.411 . S
C194 C73 1.438 . S
C192 C9 1.429 . S
C203 C22 1.500 . S
C205 C43 1.498 . S
