# Generated by pormake.
# Topology ftw, (4,12)-cn, num edge types: 1
# Building blocks:
#     Node 0, Type 0, BuildingBlock: ESEHIV_clean_sbu_0, # of connection points: 4
#     Node 1, Type 0, BuildingBlock: ESEHIV_clean_sbu_0, # of connection points: 4
#     Node 2, Type 0, BuildingBlock: ESEHIV_clean_sbu_0, # of connection points: 4
#     Node 3, Type 1, BuildingBlock: QEWDON_clean_sbu_0, # of connection points: 12
#     Edge 4, Type (0, 1), None
#     Edge 5, Type (0, 1), None
#     Edge 6, Type (0, 1), None
#     Edge 7, Type (0, 1), None
#     Edge 8, Type (0, 1), None
#     Edge 9, Type (0, 1), None
#     Edge 10, Type (0, 1), None
#     Edge 11, Type (0, 1), None
#     Edge 12, Type (0, 1), None
#     Edge 13, Type (0, 1), None
#     Edge 14, Type (0, 1), None
#     Edge 15, Type (0, 1), None
# Relax obj value: 0.069
# Max RMSD: 0.156
# Mean RMSD: 0.143
data_MOF--net-ftw--node1-ESEHIV_clean_sbu_0--node2-QEWDON_clean_sbu_0--edge1-none
_symmetry_space_group_name_H-M    P1
_symmetry_Int_Tables_number       1
_symmetry_cell_setting            triclinic
loop_
_symmetry_equiv_pos_as_xyz
'x, y, z'
_cell_length_a     13.677124
_cell_length_b     14.072644
_cell_length_c     11.686141
_cell_angle_alpha  86.492956
_cell_angle_beta   88.319179
_cell_angle_gamma 100.72786
loop_
_atom_site_label
_atom_site_type_symbol
_atom_site_fract_x
_atom_site_fract_y
_atom_site_fract_z
_atom_type_partial_charge
Cu0 Cu 0.02752 0.53579 0.5526 0.0
N1 N 0.04899 0.45453 0.43811 0.0
N2 N 0.03857 0.33133 0.32558 0.0
C3 C 0.99014 0.37525 0.40321 0.0
C4 C 0.13084 0.38506 0.31013 0.0
C5 C 0.13695 0.4612 0.37997 0.0
O6 O 0.10515 0.50802 0.6839 0.0
C7 C 0.99051 0.69853 0.42099 0.0
O8 O 0.9008 0.6468 0.41375 0.0
H9 H 0.91419 0.34941 0.43551 0.0
H10 H 0.20175 0.51691 0.38955 0.0
N11 N 0.90332 0.52046 0.62573 0.0
N12 N 0.88308 0.54695 0.81084 0.0
C13 C 0.90938 0.58726 0.70435 0.0
C14 C 0.85869 0.43665 0.6824 0.0
C15 C 0.84561 0.45302 0.79673 0.0
C16 C 0.09738 0.41821 0.71489 0.0
O17 O 0.07548 0.35425 0.63806 0.0
H18 H 0.95668 0.65801 0.68889 0.0
H19 H 0.85665 0.36595 0.65003 0.0
O20 O 0.05464 0.6657 0.48193 0.0
H21 H 0.18908 0.37059 0.25261 0.0
H22 H 0.827 0.39734 0.86556 0.0
Cu23 Cu 0.52435 0.96073 0.57715 0.0
N24 N 0.61605 0.00672 0.68645 0.0
N25 N 0.76953 -0.00267 0.74283 0.0
C26 C 0.71483 0.03167 0.66107 0.0
C27 C 0.70351 0.95482 0.82669 0.0
C28 C 0.60952 0.96132 0.79223 0.0
O29 O 0.60076 0.89604 0.47346 0.0
C30 C 0.3608 0.93295 0.72606 0.0
O31 O 0.39617 0.02495 0.73837 0.0
H32 H 0.74549 0.06077 0.5773 0.0
H33 H 0.54135 0.92085 0.83341 0.0
N34 N 0.46943 0.04875 0.48702 0.0
N35 N 0.36589 0.09685 0.36129 0.0
C36 C 0.40264 0.02133 0.40679 0.0
C37 C 0.47466 0.14441 0.49369 0.0
C38 C 0.41084 0.17443 0.41595 0.0
C39 C 0.66282 0.95097 0.40272 0.0
O40 O 0.66209 0.04423 0.39191 0.0
H41 H 0.38065 0.94723 0.38371 0.0
H42 H 0.51946 0.18833 0.55276 0.0
O43 O 0.40808 0.88552 0.66087 0.0
H44 H 0.71996 0.91313 0.90157 0.0
H45 H 0.39775 0.24772 0.40169 0.0
Cu46 Cu 0.48206 0.46218 0.98208 0.0
N47 N 0.41667 0.52287 0.09031 0.0
N48 N 0.3339 0.64 0.13051 0.0
C49 C 0.33751 0.56367 0.06685 0.0
C50 C 0.41174 0.64628 0.19909 0.0
C51 C 0.46197 0.57318 0.17506 0.0
O52 O 0.40698 0.44529 0.8437 0.0
C53 C 0.67308 0.55876 1.0261 0.0
O54 O 0.66288 0.4935 0.11295 0.0
H55 H 0.29065 0.54528 0.99527 0.0
H56 H 0.53185 0.56381 0.21013 0.0
N57 N 0.51363 0.34594 1.03578 0.0
N58 N 0.61638 0.24343 0.07117 0.0
C59 C 0.59542 0.31475 0.99946 0.0
C60 C 0.48013 0.29136 0.13205 0.0
C61 C 0.54233 0.22593 0.15285 0.0
C62 C 0.33992 0.37487 0.81768 0.0
O63 O 0.31007 0.3742 0.71196 0.0
H64 H 0.64435 0.35116 0.92924 0.0
H65 H 0.42236 0.30629 0.18915 0.0
O66 O 0.60685 0.55308 0.95098 0.0
H67 H 0.43226 0.70109 0.25971 0.0
H68 H 0.5406 0.17786 0.22895 0.0
Zn69 Zn 0.24709 0.06569 0.93284 0.0
Zn70 Zn 0.18397 0.20268 0.12226 0.0
O71 O 0.14648 0.07938 1.05754 0.0
H72 H 0.10249 0.0335 0.10861 0.0
C73 C 0.07023 0.38447 0.8352 0.0
O74 O 0.08656 0.44453 0.91718 0.0
Zn75 Zn 0.83054 0.79706 0.20944 0.0
Zn76 Zn 0.85383 0.84391 0.94226 0.0
O77 O 0.82917 0.90325 0.08657 0.0
H78 H 0.7809 0.94543 0.08384 0.0
Zn79 Zn 0.9264 0.24255 1.00209 0.0
O80 O 0.93234 0.10517 1.06069 0.0
Zn81 Zn 0.84144 0.10592 0.20015 0.0
H82 H 0.94076 0.05437 1.01151 0.0
Zn83 Zn 0.0607 0.72416 1.04146 0.0
O84 O 0.0912 0.86819 0.06298 0.0
H85 H 0.0353 0.89965 1.0489 0.0
Zn86 Zn 0.19133 0.87809 0.19202 0.0
C87 C 0.92019 0.58419 0.90915 0.0
O88 O 0.90926 0.52987 1.00598 0.0
O89 O 0.30331 0.20592 0.86102 0.0
O90 O 0.25632 0.30099 0.99234 0.0
O91 O 0.76327 0.70943 0.94707 0.0
O92 O 0.76916 0.67268 0.13628 0.0
O93 O 0.77889 0.259 1.01321 0.0
O94 O 0.71578 0.14764 0.15199 0.0
C95 C 0.29846 0.09784 0.27776 0.0
O96 O 0.18479 0.66849 0.07603 0.0
O97 O 0.28508 0.78308 0.1646 0.0
O98 O 0.90744 0.93576 0.79701 0.0
C99 C 0.3013 0.28987 0.89712 0.0
O100 O 0.21839 0.93258 0.85055 0.0
C101 C 0.74186 0.91387 0.34202 0.0
O102 O 0.01193 0.30269 0.85451 0.0
C103 C 0.74155 0.65058 1.03571 0.0
O104 O 0.97589 0.66802 0.90525 0.0
C105 C 0.99901 0.25186 0.27109 0.0
O106 O 0.2779 0.17913 0.24285 0.0
O107 O 0.2524 0.01956 0.2372 0.0
C108 C 0.70508 0.21381 0.07651 0.0
O109 O 0.73988 0.82337 0.34099 0.0
O110 O 0.80905 0.96989 0.27936 0.0
C111 C 0.02756 0.77866 0.33622 0.0
O112 O 0.90843 0.21204 0.29294 0.0
O113 O 0.05041 0.21397 0.20004 0.0
C114 C 0.26663 0.69941 0.12289 0.0
O115 O 0.12052 0.80991 0.33077 0.0
O116 O 0.97427 0.80872 0.25913 0.0
C117 C 0.86751 -0.00859 0.73025 0.0
O118 O 0.92156 0.03862 0.64251 0.0
C119 C 0.26391 0.88816 0.78028 0.0
O120 O 0.22117 0.80132 0.75348 0.0
loop_
_geom_bond_atom_site_label_1
_geom_bond_atom_site_label_2
_geom_bond_distance
_geom_bond_site_symmetry_2
_ccdc_geom_bond_type
Cu0 N1 1.999 . S
Cu0 O6 1.974 . S
Cu0 N11 1.985 . S
Cu0 O20 1.959 . S
N1 Cu0 1.999 . S
N1 C3 1.263 . S
N1 C5 1.389 . S
N2 C3 1.358 . S
N2 C4 1.400 . S
C3 N1 1.263 . S
C3 N2 1.358 . S
C3 H9 0.930 1_455 S
C4 N2 1.400 . S
C4 C5 1.351 . S
C4 H21 0.930 . S
C5 N1 1.389 . S
C5 C4 1.351 . S
C5 H10 0.930 . S
O6 Cu0 1.974 . S
O6 C16 1.282 1_455 S
C7 O8 1.261 . S
C7 O20 1.251 1_655 S
O8 C7 1.261 . S
H9 C3 0.930 1_655 S
H10 C5 0.930 . S
N11 Cu0 1.985 . S
N11 C13 1.335 . S
N11 C14 1.390 1_455 S
N12 C13 1.345 . S
N12 C15 1.336 1_455 S
C13 N11 1.335 . S
C13 N12 1.345 . S
C13 H18 0.930 . S
C14 N11 1.390 1_655 S
C14 C15 1.346 . S
C14 H19 0.930 . S
C15 N12 1.336 1_655 S
C15 C14 1.346 . S
C15 H22 0.929 . S
C16 O6 1.282 1_655 S
C16 O17 1.216 . S
O17 C16 1.216 . S
H18 C13 0.930 . S
H19 C14 0.930 . S
O20 Cu0 1.959 . S
O20 C7 1.251 1_455 S
H21 C4 0.930 . S
H22 C15 0.929 . S
Cu23 N24 1.999 . S
Cu23 O29 1.974 . S
Cu23 N34 1.985 . S
Cu23 O43 1.959 . S
N24 Cu23 1.999 . S
N24 C26 1.263 . S
N24 C28 1.389 . S
N25 C26 1.358 . S
N25 C27 1.400 . S
C26 N24 1.263 . S
C26 N25 1.358 . S
C26 H32 0.930 1_565 S
C27 N25 1.400 . S
C27 C28 1.351 . S
C27 H44 0.930 . S
C28 N24 1.389 . S
C28 C27 1.351 . S
C28 H33 0.930 . S
O29 Cu23 1.974 . S
O29 C39 1.282 1_565 S
C30 O31 1.261 . S
C30 O43 1.251 1_545 S
O31 C30 1.261 . S
H32 C26 0.930 1_545 S
H33 C28 0.930 . S
N34 Cu23 1.985 . S
N34 C36 1.335 . S
N34 C37 1.390 1_565 S
N35 C36 1.345 . S
N35 C38 1.336 1_565 S
C36 N34 1.335 . S
C36 N35 1.345 . S
C36 H41 0.930 . S
C37 N34 1.390 1_545 S
C37 C38 1.346 . S
C37 H42 0.930 . S
C38 N35 1.336 1_545 S
C38 C37 1.346 . S
C38 H45 0.929 . S
C39 O29 1.282 1_545 S
C39 O40 1.216 . S
O40 C39 1.216 . S
H41 C36 0.930 . S
H42 C37 0.930 . S
O43 Cu23 1.959 . S
O43 C30 1.251 1_565 S
H44 C27 0.930 . S
H45 C38 0.929 . S
Cu46 N47 1.999 . S
Cu46 O52 1.974 . S
Cu46 N57 1.985 . S
Cu46 O66 1.959 . S
N47 Cu46 1.999 . S
N47 C49 1.263 . S
N47 C51 1.389 . S
N48 C49 1.358 . S
N48 C50 1.400 . S
C49 N47 1.263 . S
C49 N48 1.358 . S
C49 H55 0.930 1_556 S
C50 N48 1.400 . S
C50 C51 1.351 . S
C50 H67 0.930 . S
C51 N47 1.389 . S
C51 C50 1.351 . S
C51 H56 0.930 . S
O52 Cu46 1.974 . S
O52 C62 1.282 1_556 S
C53 O54 1.261 . S
C53 O66 1.251 1_554 S
O54 C53 1.261 . S
H55 C49 0.930 1_554 S
H56 C51 0.930 . S
N57 Cu46 1.985 . S
N57 C59 1.335 . S
N57 C60 1.390 1_556 S
N58 C59 1.345 . S
N58 C61 1.336 1_556 S
C59 N57 1.335 . S
C59 N58 1.345 . S
C59 H64 0.930 . S
C60 N57 1.390 1_554 S
C60 C61 1.346 . S
C60 H65 0.930 . S
C61 N58 1.336 1_554 S
C61 C60 1.346 . S
C61 H68 0.929 . S
C62 O52 1.282 1_554 S
C62 O63 1.216 . S
O63 C62 1.216 . S
H64 C59 0.930 . S
H65 C60 0.930 . S
O66 Cu46 1.959 . S
O66 C53 1.251 1_556 S
H67 C50 0.930 . S
H68 C61 0.929 . S
Zn69 O71 1.933 . S
Zn69 O89 1.985 . S
Zn69 O100 1.955 . S
Zn70 O71 1.911 1_554 S
Zn70 O90 1.970 . S
Zn70 O106 1.945 . S
Zn70 O113 1.981 . S
O71 Zn69 1.933 . S
O71 Zn70 1.911 1_556 S
O71 H72 0.841 . S
H72 O71 0.841 . S
C73 O74 1.246 . S
C73 O102 1.276 1_455 S
O74 C73 1.246 . S
Zn75 O77 1.911 . S
Zn75 O92 1.970 . S
Zn75 O109 1.945 . S
Zn75 O116 1.981 . S
Zn76 O77 1.933 1_556 S
Zn76 O91 1.985 . S
Zn76 O98 1.955 . S
O77 Zn75 1.911 . S
O77 Zn76 1.933 1_554 S
O77 H78 0.841 . S
H78 O77 0.841 . S
Zn79 O80 1.933 1_556 S
Zn79 O93 1.985 . S
Zn79 O102 1.955 . S
O80 Zn79 1.933 1_554 S
O80 Zn81 1.911 . S
O80 H82 0.841 1_554 S
Zn81 O80 1.911 . S
Zn81 O94 1.970 . S
Zn81 O110 1.981 . S
Zn81 O112 1.945 . S
H82 O80 0.841 1_556 S
Zn83 O84 1.933 1_556 S
Zn83 O96 1.985 . S
Zn83 O104 1.955 . S
O84 Zn83 1.933 1_554 S
O84 H85 0.841 . S
O84 Zn86 1.911 . S
H85 O84 0.841 . S
Zn86 O84 1.911 . S
Zn86 O97 1.970 . S
Zn86 O107 1.981 . S
Zn86 O115 1.945 . S
C87 O88 1.246 . S
C87 O104 1.276 1_655 S
O88 C87 1.246 . S
O89 Zn69 1.985 . S
O89 C99 1.245 . S
O90 Zn70 1.970 . S
O90 C99 1.263 1_554 S
O91 Zn76 1.985 . S
O91 C103 1.245 1_556 S
O92 Zn75 1.970 . S
O92 C103 1.263 . S
O93 Zn79 1.985 . S
O93 C108 1.245 1_556 S
O94 Zn81 1.970 . S
O94 C108 1.263 . S
C95 O106 1.262 . S
C95 O107 1.245 1_545 S
O96 Zn83 1.985 . S
O96 C114 1.235 1_556 S
O97 Zn86 1.970 . S
O97 C114 1.272 . S
O98 Zn76 1.955 . S
O98 C117 1.276 1_565 S
C99 O89 1.245 . S
C99 O90 1.263 1_556 S
O100 Zn69 1.955 . S
O100 C119 1.276 . S
C101 O109 1.262 . S
C101 O110 1.245 1_565 S
O102 C73 1.276 1_655 S
O102 Zn79 1.955 . S
C103 O91 1.245 1_554 S
C103 O92 1.263 . S
O104 Zn83 1.955 . S
O104 C87 1.276 1_455 S
C105 O112 1.259 1_455 S
C105 O113 1.246 . S
O106 Zn70 1.945 . S
O106 C95 1.262 . S
O107 Zn86 1.981 . S
O107 C95 1.245 1_565 S
C108 O93 1.245 1_554 S
C108 O94 1.263 . S
O109 Zn75 1.945 . S
O109 C101 1.262 . S
O110 Zn81 1.981 . S
O110 C101 1.245 1_545 S
C111 O115 1.262 1_655 S
C111 O116 1.245 . S
O112 Zn81 1.945 . S
O112 C105 1.259 1_655 S
O113 Zn70 1.981 . S
O113 C105 1.246 . S
C114 O96 1.235 1_554 S
C114 O97 1.272 . S
O115 Zn86 1.945 . S
O115 C111 1.262 1_455 S
O116 Zn75 1.981 . S
O116 C111 1.245 . S
C117 O98 1.276 1_545 S
C117 O118 1.246 . S
O118 C117 1.246 . S
C119 O100 1.276 . S
C119 O120 1.246 1_545 S
O120 C119 1.246 1_565 S
C105 N2 1.310 . S
C101 C39 2.087 1_565 S
C111 C7 1.761 . S
C95 N35 1.388 1_545 S
N12 C87 1.294 1_455 S
C119 C30 2.130 . S
C16 C73 2.073 1_655 S
N25 C117 1.709 1_565 S
C62 C99 1.512 1_554 S
N48 C114 0.905 1_556 S
C108 N58 0.783 1_554 S
C103 C53 1.281 . S
