# Generated by pormake.
# Topology pth, (4,4)-cn, num edge types: 1
# Building blocks:
#     Node 0, Type 0, BuildingBlock: QUQFOY_clean_sbu_3, # of connection points: 4
#     Node 1, Type 0, BuildingBlock: QUQFOY_clean_sbu_3, # of connection points: 4
#     Node 2, Type 0, BuildingBlock: QUQFOY_clean_sbu_3, # of connection points: 4
#     Node 3, Type 1, BuildingBlock: MUDLON_clean_sbu_0, # of connection points: 4
#     Node 4, Type 1, BuildingBlock: MUDLON_clean_sbu_0, # of connection points: 4
#     Node 5, Type 1, BuildingBlock: MUDLON_clean_sbu_0, # of connection points: 4
#     Edge 6, Type (0, 1), BuildingBlock: AJUNOK_clean_linker_0, # of connection points: 2
#     Edge 7, Type (0, 1), BuildingBlock: AJUNOK_clean_linker_0, # of connection points: 2
#     Edge 8, Type (0, 1), BuildingBlock: AJUNOK_clean_linker_0, # of connection points: 2
#     Edge 9, Type (0, 1), BuildingBlock: AJUNOK_clean_linker_0, # of connection points: 2
#     Edge 10, Type (0, 1), BuildingBlock: AJUNOK_clean_linker_0, # of connection points: 2
#     Edge 11, Type (0, 1), BuildingBlock: AJUNOK_clean_linker_0, # of connection points: 2
#     Edge 12, Type (0, 1), BuildingBlock: AJUNOK_clean_linker_0, # of connection points: 2
#     Edge 13, Type (0, 1), BuildingBlock: AJUNOK_clean_linker_0, # of connection points: 2
#     Edge 14, Type (0, 1), BuildingBlock: AJUNOK_clean_linker_0, # of connection points: 2
#     Edge 15, Type (0, 1), BuildingBlock: AJUNOK_clean_linker_0, # of connection points: 2
#     Edge 16, Type (0, 1), BuildingBlock: AJUNOK_clean_linker_0, # of connection points: 2
#     Edge 17, Type (0, 1), BuildingBlock: AJUNOK_clean_linker_0, # of connection points: 2
# Relax obj value: 0.015
# Max RMSD: 0.070
# Mean RMSD: 0.054
data_MOF--net-pth--node1-QUQFOY_clean_sbu_3--node2-MUDLON_clean_sbu_0--edge1-AJUNOK_clean_linker_0
_symmetry_space_group_name_H-M    P1
_symmetry_Int_Tables_number       1
_symmetry_cell_setting            triclinic
loop_
_symmetry_equiv_pos_as_xyz
'x, y, z'
_cell_length_a     17.130582
_cell_length_b     17.074924
_cell_length_c     46.310753
_cell_angle_alpha  89.740959
_cell_angle_beta   90.998073
_cell_angle_gamma 120.65322
loop_
_atom_site_label
_atom_site_type_symbol
_atom_site_fract_x
_atom_site_fract_y
_atom_site_fract_z
_atom_type_partial_charge
C0 C 0.01272 0.23512 0.12389 0.0
O1 O 0.97822 0.24117 0.10009 0.0
Cd2 Cd 0.97202 0.15834 0.05707 0.0
O3 O 0.04757 0.18474 0.12573 0.0
Cd4 Cd 0.07322 0.0801 0.09571 0.0
C5 C 0.1976 0.23449 0.04501 0.0
O6 O 0.92276 0.00522 0.07076 0.0
O7 O 0.02241 0.97624 0.0547 0.0
O8 O 0.0539 0.99209 0.13995 0.0
C9 C 0.94266 0.96273 0.05276 0.0
O10 O 0.12273 0.2252 0.03586 0.0
C11 C 0.12231 0.98327 0.13619 0.0
O12 O 0.20196 0.19818 0.06861 0.0
O13 O 0.16816 0.0198 0.11374 0.0
C14 C 0.20305 0.12951 0.45331 0.0
O15 O 0.24199 0.1678 0.42999 0.0
Cd16 Cd 0.16204 0.17853 0.38803 0.0
O17 O 0.11732 0.09385 0.45547 0.0
Cd18 Cd 0.98357 0.07236 0.42667 0.0
C19 C 0.00937 0.95318 0.3727 0.0
O20 O 0.06165 0.22601 0.40522 0.0
O21 O 0.92697 0.13259 0.3892 0.0
O22 O 0.91728 0.08368 0.47212 0.0
C23 C 0.99633 0.21177 0.38851 0.0
O24 O 0.07674 0.02853 0.36461 0.0
C25 C 0.839 0.0149 0.46721 0.0
O26 O 0.96835 0.94861 0.39589 0.0
O27 O 0.82849 0.97233 0.44373 0.0
C28 C 0.88281 0.16395 0.73486 0.0
O29 O 0.87964 0.19012 0.76021 0.0
Cd30 Cd 0.97578 0.19785 0.80005 0.0
O31 O 0.93793 0.13695 0.72919 0.0
Cd32 Cd 0.0543 0.11704 0.75616 0.0
C33 C 0.91674 0.97602 0.80952 0.0
O34 O 0.12727 0.26599 0.7821 0.0
O35 O 0.17848 0.17615 0.79119 0.0
O36 O 0.13747 0.15366 0.71104 0.0
C37 C 0.18548 0.25287 0.79498 0.0
O38 O 0.91811 0.04561 0.81989 0.0
C39 C 0.14753 0.08495 0.71072 0.0
O40 O 0.95522 0.9816 0.78564 0.0
O41 O 0.11246 0.02928 0.7314 0.0
Mg42 Mg 0.04235 0.60073 0.25855 0.0
C43 C 0.01215 0.45804 0.29807 0.0
O44 O 0.93816 0.42934 0.28214 0.0
C45 C 0.15739 0.73204 0.21191 0.0
O46 O 0.13766 0.65644 0.19849 0.0
C47 C 0.03812 0.4628 0.22102 0.0
O48 O 0.1093 0.49021 0.23818 0.0
O49 O 0.98946 0.49904 0.22385 0.0
O50 O 0.07899 0.53761 0.29332 0.0
O51 O 0.95763 0.64707 0.27805 0.0
C52 C 0.94518 0.64097 0.3052 0.0
O53 O 0.96217 0.58567 0.32009 0.0
O54 O 0.141 0.72888 0.23873 0.0
Mg55 Mg 0.51806 0.06429 0.59076 0.0
C56 C 0.39663 0.07649 0.54896 0.0
O57 O 0.34901 -0.00179 0.56219 0.0
C58 C 0.62082 0.10735 0.64485 0.0
O59 O 0.54521 0.03028 0.64937 0.0
C60 C 0.39085 0.07803 0.62609 0.0
O61 O 0.4469 0.1585 0.61524 0.0
O62 O 0.40124 0.01164 0.61932 0.0
O63 O 0.47993 0.12747 0.55626 0.0
O64 O 0.56422 0.98208 0.56915 0.0
C65 C 0.54994 0.96461 0.54224 0.0
O66 O 0.48805 0.97578 0.52894 0.0
O67 O 0.6323 0.14572 0.62034 0.0
Mg68 Mg 0.5682 0.60046 0.92396 0.0
C69 C 0.45394 0.49072 0.87985 0.0
O70 O 0.50935 0.46354 0.88892 0.0
C71 C 0.70476 0.7323 0.96063 0.0
O72 O 0.73125 0.67786 0.95065 0.0
C73 C 0.50993 0.4841 0.97861 0.0
O74 O 0.5581 0.5635 0.99146 0.0
O75 O 0.51303 0.47957 0.95126 0.0
O76 O 0.45713 0.55832 0.8927 0.0
O77 O 0.67701 0.62623 0.89454 0.0
C78 C 0.74029 0.64056 0.87747 0.0
O79 O 0.76182 0.57737 0.87489 0.0
O80 O 0.62687 0.71813 0.95286 0.0
C81 C 0.98032 0.34829 0.14727 0.0
C82 C 0.01325 0.28766 0.14959 0.0
C83 C 0.98437 0.40194 0.17083 0.0
C84 C 0.02206 0.39743 0.19753 0.0
H85 H 0.95283 0.35596 0.12692 0.0
H86 H 0.96109 0.44973 0.16776 0.0
S87 S 0.10839 0.24319 0.21624 0.0
N88 N 0.07798 0.22158 0.18187 0.0
N89 N 0.08592 0.32253 0.22579 0.0
C90 C 0.05176 0.33469 0.20054 0.0
C91 C 0.0473 0.27983 0.1767 0.0
C92 C 0.78089 0.02038 0.51598 0.0
C93 C 0.76279 0.98893 0.48723 0.0
C94 C 0.7106 0.0055 0.53448 0.0
C95 C 0.61946 0.96009 0.52478 0.0
H96 H 0.8502 0.05908 0.52408 0.0
H97 H 0.72863 0.03473 0.55599 0.0
S98 S 0.53475 0.85668 0.45231 0.0
N99 N 0.64597 0.9033 0.45071 0.0
N100 N 0.51435 0.87752 0.48525 0.0
C101 C 0.60001 0.92432 0.49655 0.0
C102 C 0.67147 0.93814 0.47785 0.0
C103 C 0.81665 0.87929 0.84967 0.0
C104 C 0.87143 0.88885 0.82597 0.0
C105 C 0.77444 0.79909 0.86605 0.0
C106 C 0.78569 0.72493 0.85966 0.0
H107 H 0.80591 0.93427 0.8557 0.0
H108 H 0.73322 0.79566 0.88403 0.0
S109 S 0.92284 0.71461 0.80007 0.0
N110 N 0.93475 0.8165 0.7971 0.0
N111 N 0.85606 0.66643 0.82785 0.0
C112 C 0.84051 0.73352 0.83609 0.0
C113 C 0.88303 0.81505 0.81926 0.0
C114 C 0.11399 0.91631 0.18502 0.0
C115 C 0.14475 0.92968 0.15645 0.0
C116 C 0.12564 0.85812 0.20377 0.0
C117 C 0.16683 0.80945 0.19447 0.0
H118 H 0.07839 0.94918 0.19276 0.0
H119 H 0.09693 0.84697 0.2251 0.0
S120 S 0.26637 0.82651 0.1226 0.0
N121 N 0.22509 0.89522 0.12054 0.0
N122 N 0.24451 0.78385 0.15553 0.0
C123 C 0.20187 0.82567 0.16644 0.0
C124 C 0.1915 0.88626 0.1475 0.0
C125 C 0.21015 0.06857 0.50184 0.0
C126 C 0.25638 0.12352 0.4781 0.0
C127 C 0.2569 0.05668 0.52487 0.0
C128 C 0.35217 0.09974 0.52545 0.0
H129 H 0.13673 0.03248 0.50248 0.0
H130 H 0.21749 0.01208 0.54226 0.0
S131 S 0.50686 0.25516 0.46967 0.0
N132 N 0.40426 0.22499 0.45726 0.0
N133 N 0.49192 0.20254 0.50088 0.0
C134 C 0.39999 0.15747 0.50246 0.0
C135 C 0.35218 0.16919 0.47871 0.0
C136 C 0.24105 0.37854 0.8319 0.0
C137 C 0.25755 0.32215 0.81402 0.0
C138 C 0.30623 0.43661 0.85254 0.0
C139 C 0.38993 0.44034 0.85568 0.0
H140 H 0.17599 0.37476 0.83081 0.0
H141 H 0.28951 0.47575 0.86685 0.0
S142 S 0.47114 0.31756 0.81046 0.0
N143 N 0.36681 0.28126 0.79855 0.0
N144 N 0.48954 0.39086 0.83653 0.0
C145 C 0.40892 0.38846 0.83653 0.0
C146 C 0.34264 0.32917 0.81591 0.0
C147 C 0.84177 0.1662 0.68257 0.0
C148 C 0.81969 0.16156 0.71198 0.0
C149 C 0.77975 0.15654 0.66057 0.0
C150 C 0.69303 0.14021 0.66728 0.0
H151 H 0.90668 0.17535 0.67649 0.0
H152 H 0.79772 0.15634 0.63826 0.0
S153 S 0.60311 0.12726 0.74045 0.0
N154 N 0.70632 0.14515 0.74632 0.0
N155 N 0.58957 0.12439 0.70501 0.0
C156 C 0.67138 0.13882 0.69644 0.0
C157 C 0.73477 0.15026 0.71879 0.0
C158 C 0.78706 0.87264 0.02969 0.0
C159 C 0.88187 0.91147 0.02804 0.0
C160 C 0.72886 0.81875 0.00695 0.0
C161 C 0.76404 0.80274 0.98191 0.0
H162 H 0.7575 0.88113 0.04905 0.0
H163 H 0.65615 0.78593 0.0096 0.0
S164 S 0.00709 0.90133 0.96487 0.0
N165 N 0.00792 0.93867 0.99774 0.0
N166 N 0.89907 0.83824 0.95536 0.0
C167 C 0.8586 0.84581 0.97934 0.0
C168 C 0.91745 0.89995 0.00233 0.0
C169 C 0.00239 0.87878 0.32552 0.0
C170 C 0.97989 0.87019 0.35493 0.0
C171 C 0.98338 0.80271 0.30876 0.0
C172 C 0.94245 0.71507 0.32086 0.0
H173 H 0.03722 0.94523 0.31549 0.0
H174 H 0.00623 0.81377 0.28665 0.0
S175 S 0.86119 0.65397 0.39592 0.0
N176 N 0.90668 0.76556 0.3947 0.0
N177 N 0.87271 0.62289 0.3633 0.0
C178 C 0.91494 0.70474 0.34976 0.0
C179 C 0.93319 0.78213 0.36676 0.0
C180 C 0.23585 0.13722 0.66531 0.0
C181 C 0.20144 0.07387 0.68794 0.0
C182 C 0.29394 0.13505 0.64492 0.0
C183 C 0.32013 0.06923 0.64607 0.0
H184 H 0.21966 0.1907 0.66363 0.0
H185 H 0.31999 0.18693 0.62836 0.0
S186 S 0.24563 0.8844 0.69992 0.0
N187 N 0.19482 0.94027 0.70954 0.0
N188 N 0.30432 0.93645 0.67092 0.0
C189 C 0.28358 0.00296 0.6678 0.0
C190 C 0.2243 0.0053 0.6888 0.0
C191 C 0.36408 0.34696 0.04136 0.0
C192 C 0.28011 0.28825 0.02775 0.0
C193 C 0.44024 0.40651 0.02515 0.0
C194 C 0.43568 0.40784 0.99475 0.0
H195 H 0.36981 0.35032 0.06472 0.0
H196 H 0.50222 0.45426 0.03658 0.0
S197 S 0.23425 0.25655 0.9488 0.0
N198 N 0.19878 0.22802 0.98222 0.0
N199 N 0.34192 0.33757 0.9517 0.0
C200 C 0.35365 0.34415 0.98089 0.0
C201 C 0.2758 0.28513 0.99741 0.0
C202 C 0.92871 0.25613 0.34826 0.0
C203 C 0.0036 0.27883 0.36658 0.0
C204 C 0.93309 0.31471 0.32638 0.0
C205 C 0.01253 0.39915 0.32173 0.0
H206 H 0.86577 0.19194 0.35061 0.0
H207 H 0.87301 0.29289 0.31296 0.0
S208 S 0.228 0.49229 0.36398 0.0
N209 N 0.1601 0.39249 0.37887 0.0
N210 N 0.16812 0.50322 0.3376 0.0
C211 C 0.08806 0.42356 0.34002 0.0
C212 C 0.08363 0.36338 0.36246 0.0
loop_
_geom_bond_atom_site_label_1
_geom_bond_atom_site_label_2
_geom_bond_distance
_geom_bond_site_symmetry_2
_ccdc_geom_bond_type
C0 O1 1.306 1_455 S
C0 O3 1.160 . S
O1 C0 1.306 1_655 S
O1 Cd2 2.228 . S
Cd2 O1 2.228 . S
Cd2 O6 2.273 . S
Cd2 O10 2.277 1_655 S
O3 C0 1.160 . S
O3 Cd4 2.203 . S
Cd4 O3 2.203 . S
Cd4 O6 2.411 1_455 S
Cd4 O7 2.333 1_445 S
Cd4 O8 2.352 1_545 S
Cd4 O12 2.277 . S
Cd4 O13 2.356 1_545 S
C5 O10 1.209 . S
C5 O12 1.226 . S
O6 Cd2 2.273 . S
O6 Cd4 2.411 1_655 S
O6 C9 1.320 1_545 S
O7 Cd4 2.333 1_665 S
O7 C9 1.214 . S
O8 Cd4 2.352 1_565 S
O8 C11 1.258 . S
C9 O6 1.320 1_565 S
C9 O7 1.214 . S
O10 Cd2 2.277 1_455 S
O10 C5 1.209 . S
C11 O8 1.258 . S
C11 O13 1.282 . S
O12 Cd4 2.277 . S
O12 C5 1.226 . S
O13 Cd4 2.356 1_565 S
O13 C11 1.282 . S
C14 O15 1.306 . S
C14 O17 1.160 . S
O15 C14 1.306 . S
O15 Cd16 2.228 . S
Cd16 O15 2.228 . S
Cd16 O20 2.273 . S
Cd16 O24 2.277 . S
O17 C14 1.160 . S
O17 Cd18 2.203 . S
Cd18 O17 2.203 . S
Cd18 O20 2.411 . S
Cd18 O21 2.333 1_455 S
Cd18 O22 2.352 1_455 S
Cd18 O26 2.277 1_445 S
Cd18 O27 2.356 1_455 S
C19 O24 1.209 1_565 S
C19 O26 1.226 1_455 S
O20 Cd16 2.273 . S
O20 Cd18 2.411 . S
O20 C23 1.320 . S
O21 Cd18 2.333 1_655 S
O21 C23 1.214 1_655 S
O22 Cd18 2.352 1_655 S
O22 C25 1.258 . S
C23 O20 1.320 . S
C23 O21 1.214 1_455 S
O24 Cd16 2.277 . S
O24 C19 1.209 1_545 S
C25 O22 1.258 . S
C25 O27 1.282 . S
O26 Cd18 2.277 1_665 S
O26 C19 1.226 1_655 S
O27 Cd18 2.356 1_655 S
O27 C25 1.282 . S
C28 O29 1.306 . S
C28 O31 1.160 . S
O29 C28 1.306 . S
O29 Cd30 2.228 . S
Cd30 O29 2.228 . S
Cd30 O34 2.273 1_655 S
Cd30 O38 2.277 . S
O31 C28 1.160 . S
O31 Cd32 2.203 1_655 S
Cd32 O31 2.203 1_455 S
Cd32 O34 2.411 . S
Cd32 O35 2.333 . S
Cd32 O36 2.352 . S
Cd32 O40 2.277 1_445 S
Cd32 O41 2.356 . S
C33 O38 1.209 1_565 S
C33 O40 1.226 . S
O34 Cd30 2.273 1_455 S
O34 Cd32 2.411 . S
O34 C37 1.320 . S
O35 Cd32 2.333 . S
O35 C37 1.214 . S
O36 Cd32 2.352 . S
O36 C39 1.258 . S
C37 O34 1.320 . S
C37 O35 1.214 . S
O38 Cd30 2.277 . S
O38 C33 1.209 1_545 S
C39 O36 1.258 . S
C39 O41 1.282 . S
O40 Cd32 2.277 1_665 S
O40 C33 1.226 . S
O41 Cd32 2.356 . S
O41 C39 1.282 . S
Mg42 O49 2.141 . S
Mg42 O50 2.048 . S
Mg42 O51 2.048 . S
Mg42 O54 2.141 . S
C43 O44 1.313 1_455 S
C43 O50 1.195 . S
O44 C43 1.313 1_655 S
C45 O46 1.245 1_455 S
C45 O54 1.289 . S
O46 C45 1.245 1_655 S
C47 O48 1.245 1_455 S
C47 O49 1.289 . S
O48 C47 1.245 1_655 S
O49 Mg42 2.141 . S
O49 C47 1.289 . S
O50 Mg42 2.048 . S
O50 C43 1.195 . S
O51 Mg42 2.048 . S
O51 C52 1.195 . S
C52 O51 1.195 . S
C52 O53 1.313 1_455 S
O53 C52 1.313 1_655 S
O54 Mg42 2.141 . S
O54 C45 1.289 . S
Mg55 O62 2.141 . S
Mg55 O63 2.048 . S
Mg55 O64 2.048 . S
Mg55 O67 2.141 . S
C56 O57 1.313 1_545 S
C56 O63 1.195 . S
O57 C56 1.313 1_565 S
C58 O59 1.245 1_545 S
C58 O67 1.289 . S
O59 C58 1.245 1_565 S
C60 O61 1.245 1_545 S
C60 O62 1.289 . S
O61 C60 1.245 1_565 S
O62 Mg55 2.141 . S
O62 C60 1.289 . S
O63 Mg55 2.048 . S
O63 C56 1.195 . S
O64 Mg55 2.048 . S
O64 C65 1.195 . S
C65 O64 1.195 . S
C65 O66 1.313 1_545 S
O66 C65 1.313 1_565 S
O67 Mg55 2.141 . S
O67 C58 1.289 . S
Mg68 O75 2.141 . S
Mg68 O76 2.048 . S
Mg68 O77 2.048 . S
Mg68 O80 2.141 . S
C69 O70 1.313 . S
C69 O76 1.195 . S
O70 C69 1.313 . S
C71 O72 1.245 . S
C71 O80 1.289 . S
O72 C71 1.245 . S
C73 O74 1.245 . S
C73 O75 1.289 . S
O74 C73 1.245 . S
O75 Mg68 2.141 . S
O75 C73 1.289 . S
O76 Mg68 2.048 . S
O76 C69 1.195 . S
O77 Mg68 2.048 . S
O77 C78 1.195 . S
C78 O77 1.195 . S
C78 O79 1.313 . S
O79 C78 1.313 . S
O80 Mg68 2.141 . S
O80 C71 1.289 . S
C81 C82 1.369 . S
C81 C83 1.419 . S
C81 H85 0.930 . S
C82 C81 1.369 . S
C82 C91 1.429 . S
C83 C81 1.419 . S
C83 C84 1.363 . S
C83 H86 0.929 . S
C84 C83 1.363 . S
C84 C90 1.428 . S
H85 C81 0.930 . S
H86 C83 0.929 . S
S87 N88 1.613 1_655 S
S87 N89 1.610 1_655 S
N88 S87 1.613 1_455 S
N88 C91 1.350 . S
N89 S87 1.610 1_455 S
N89 C90 1.351 . S
C90 C84 1.428 . S
C90 N89 1.351 . S
C90 C91 1.434 . S
C91 C82 1.429 . S
C91 N88 1.350 . S
C91 C90 1.434 . S
C92 C93 1.369 . S
C92 C94 1.419 . S
C92 H96 0.930 . S
C93 C92 1.369 . S
C93 C102 1.429 1_545 S
C94 C92 1.419 . S
C94 C95 1.363 . S
C94 H97 0.929 . S
C95 C94 1.363 . S
C95 C101 1.417 1_545 S
H96 C92 0.930 . S
H97 C94 0.929 . S
S98 N99 1.613 . S
S98 N100 1.610 . S
N99 S98 1.613 . S
N99 C102 1.350 . S
N100 S98 1.610 . S
N100 C101 1.359 . S
C101 C95 1.417 1_565 S
C101 N100 1.359 . S
C101 C102 1.439 . S
C102 C93 1.429 1_565 S
C102 N99 1.350 . S
C102 C101 1.439 . S
C103 C104 1.369 . S
C103 C105 1.419 . S
C103 H107 0.930 . S
C104 C103 1.369 . S
C104 C113 1.429 . S
C105 C103 1.419 . S
C105 C106 1.363 . S
C105 H108 0.929 . S
C106 C105 1.363 . S
C106 C112 1.428 . S
H107 C103 0.930 . S
H108 C105 0.929 . S
S109 N110 1.613 . S
S109 N111 1.610 . S
N110 S109 1.613 . S
N110 C113 1.350 . S
N111 S109 1.610 . S
N111 C112 1.351 . S
C112 C106 1.428 . S
C112 N111 1.351 . S
C112 C113 1.434 . S
C113 C104 1.429 . S
C113 N110 1.350 . S
C113 C112 1.434 . S
C114 C115 1.369 . S
C114 C116 1.419 . S
C114 H118 0.930 . S
C115 C114 1.369 . S
C115 C124 1.429 . S
C116 C114 1.419 . S
C116 C117 1.363 . S
C116 H119 0.929 . S
C117 C116 1.363 . S
C117 C123 1.428 . S
H118 C114 0.930 . S
H119 C116 0.929 . S
S120 N121 1.613 . S
S120 N122 1.610 . S
N121 S120 1.613 . S
N121 C124 1.350 . S
N122 S120 1.610 . S
N122 C123 1.351 . S
C123 C117 1.428 . S
C123 N122 1.351 . S
C123 C124 1.434 . S
C124 C115 1.429 . S
C124 N121 1.350 . S
C124 C123 1.434 . S
C125 C126 1.369 . S
C125 C127 1.419 . S
C125 H129 0.930 1_545 S
C126 C125 1.369 . S
C126 C135 1.429 . S
C127 C125 1.419 . S
C127 C128 1.363 . S
C127 H130 0.929 1_545 S
C128 C127 1.363 . S
C128 C134 1.428 . S
H129 C125 0.930 1_565 S
H130 C127 0.929 1_565 S
S131 N132 1.613 . S
S131 N133 1.610 . S
N132 S131 1.613 . S
N132 C135 1.350 . S
N133 S131 1.610 . S
N133 C134 1.351 . S
C134 C128 1.428 . S
C134 N133 1.351 . S
C134 C135 1.434 . S
C135 C126 1.429 . S
C135 N132 1.350 . S
C135 C134 1.434 . S
C136 C137 1.369 . S
C136 C138 1.419 . S
C136 H140 0.930 . S
C137 C136 1.369 . S
C137 C146 1.429 . S
C138 C136 1.419 . S
C138 C139 1.363 . S
C138 H141 0.929 . S
C139 C138 1.363 . S
C139 C145 1.428 . S
H140 C136 0.930 . S
H141 C138 0.929 . S
S142 N143 1.613 . S
S142 N144 1.610 . S
N143 S142 1.613 . S
N143 C146 1.350 . S
N144 S142 1.610 . S
N144 C145 1.351 . S
C145 C139 1.428 . S
C145 N144 1.351 . S
C145 C146 1.434 . S
C146 C137 1.429 . S
C146 N143 1.350 . S
C146 C145 1.434 . S
C147 C148 1.369 . S
C147 C149 1.419 . S
C147 H151 0.930 . S
C148 C147 1.369 . S
C148 C157 1.429 . S
C149 C147 1.419 . S
C149 C150 1.363 . S
C149 H152 0.929 . S
C150 C149 1.363 . S
C150 C156 1.428 . S
H151 C147 0.930 . S
H152 C149 0.929 . S
S153 N154 1.613 . S
S153 N155 1.610 . S
N154 S153 1.613 . S
N154 C157 1.350 . S
N155 S153 1.610 . S
N155 C156 1.351 . S
C156 C150 1.428 . S
C156 N155 1.351 . S
C156 C157 1.434 . S
C157 C148 1.429 . S
C157 N154 1.350 . S
C157 C156 1.434 . S
C158 C159 1.369 . S
C158 C160 1.419 . S
C158 H162 0.930 . S
C159 C158 1.369 . S
C159 C168 1.429 . S
C160 C158 1.419 . S
C160 C161 1.363 1_554 S
C160 H163 0.929 . S
C161 C160 1.363 1_556 S
C161 C167 1.428 . S
H162 C158 0.930 . S
H163 C160 0.929 . S
S164 N165 1.613 1_556 S
S164 N166 1.610 . S
N165 S164 1.613 1_554 S
N165 C168 1.350 . S
N166 S164 1.610 . S
N166 C167 1.351 . S
C167 C161 1.428 . S
C167 N166 1.351 . S
C167 C168 1.434 1_556 S
C168 C159 1.429 . S
C168 N165 1.350 . S
C168 C167 1.434 1_554 S
C169 C170 1.369 . S
C169 C171 1.419 . S
C169 H173 0.930 . S
C170 C169 1.369 . S
C170 C179 1.429 1_455 S
C171 C169 1.419 . S
C171 C172 1.363 . S
C171 H174 0.929 . S
C172 C171 1.363 . S
C172 C178 1.428 1_455 S
H173 C169 0.930 . S
H174 C171 0.929 . S
S175 N176 1.613 . S
S175 N177 1.610 . S
N176 S175 1.613 . S
N176 C179 1.350 . S
N177 S175 1.610 . S
N177 C178 1.351 . S
C178 C172 1.428 1_655 S
C178 N177 1.351 . S
C178 C179 1.434 . S
C179 C170 1.429 1_655 S
C179 N176 1.350 . S
C179 C178 1.434 . S
C180 C181 1.369 . S
C180 C182 1.419 . S
C180 H184 0.930 . S
C181 C180 1.369 . S
C181 C190 1.429 . S
C182 C180 1.419 . S
C182 C183 1.363 . S
C182 H185 0.929 . S
C183 C182 1.363 . S
C183 C189 1.428 . S
H184 C180 0.930 . S
H185 C182 0.929 . S
S186 N187 1.613 . S
S186 N188 1.610 . S
N187 S186 1.613 . S
N187 C190 1.350 . S
N188 S186 1.610 . S
N188 C189 1.351 . S
C189 C183 1.428 . S
C189 N188 1.351 . S
C189 C190 1.434 . S
C190 C181 1.429 . S
C190 N187 1.350 . S
C190 C189 1.434 . S
C191 C192 1.369 . S
C191 C193 1.419 . S
C191 H195 0.930 . S
C192 C191 1.369 . S
C192 C201 1.429 . S
C193 C191 1.419 . S
C193 C194 1.363 1_554 S
C193 H196 0.929 . S
C194 C193 1.363 1_556 S
C194 C200 1.428 . S
H195 C191 0.930 . S
H196 C193 0.929 . S
S197 N198 1.613 1_556 S
S197 N199 1.610 . S
N198 S197 1.613 1_554 S
N198 C201 1.350 . S
N199 S197 1.610 . S
N199 C200 1.351 . S
C200 C194 1.428 . S
C200 N199 1.351 . S
C200 C201 1.434 1_556 S
C201 C192 1.429 . S
C201 N198 1.350 . S
C201 C200 1.434 1_554 S
C202 C203 1.369 1_655 S
C202 C204 1.419 . S
C202 H206 0.930 . S
C203 C202 1.369 1_455 S
C203 C212 1.429 . S
C204 C202 1.419 . S
C204 C205 1.363 1_655 S
C204 H207 0.929 . S
C205 C204 1.363 1_455 S
C205 C211 1.428 . S
H206 C202 0.930 . S
H207 C204 0.929 . S
S208 N209 1.613 . S
S208 N210 1.610 . S
N209 S208 1.613 . S
N209 C212 1.350 . S
N210 S208 1.610 . S
N210 C211 1.351 . S
C211 C205 1.428 . S
C211 N210 1.351 . S
C211 C212 1.434 . S
C212 C203 1.429 . S
C212 N209 1.350 . S
C212 C211 1.434 . S
C84 C47 1.413 . S
C82 C0 1.430 . S
C93 C25 1.495 . S
C95 C65 1.484 . S
C104 C33 1.511 . S
C106 C78 1.498 . S
C115 C11 1.398 . S
C117 C45 1.387 . S
C128 C56 1.494 . S
C126 C14 1.494 . S
C137 C37 1.499 . S
C139 C69 1.497 . S
C150 C58 1.429 . S
C148 C28 1.436 . S
C159 C9 1.443 . S
C161 C71 1.433 . S
C172 C52 1.512 . S
C170 C19 1.522 . S
C183 C60 1.423 . S
C181 C39 1.437 . S
C194 C73 1.438 . S
C192 C5 1.451 . S
C203 C23 1.539 . S
C205 C43 1.541 . S
