# Generated by pormake.
# Topology pts, (4,4)-cn, num edge types: 1
# Building blocks:
#     Node 0, Type 0, BuildingBlock: MUDLON_clean_sbu_0, # of connection points: 4
#     Node 1, Type 0, BuildingBlock: MUDLON_clean_sbu_0, # of connection points: 4
#     Node 2, Type 1, BuildingBlock: AZAVOO_clean_sbu_0, # of connection points: 4
#     Node 3, Type 1, BuildingBlock: AZAVOO_clean_sbu_0, # of connection points: 4
#     Edge 4, Type (0, 1), BuildingBlock: FUNLAD_clean_linker_0, # of connection points: 2
#     Edge 5, Type (0, 1), BuildingBlock: FUNLAD_clean_linker_0, # of connection points: 2
#     Edge 6, Type (0, 1), BuildingBlock: FUNLAD_clean_linker_0, # of connection points: 2
#     Edge 7, Type (0, 1), BuildingBlock: FUNLAD_clean_linker_0, # of connection points: 2
#     Edge 8, Type (0, 1), BuildingBlock: FUNLAD_clean_linker_0, # of connection points: 2
#     Edge 9, Type (0, 1), BuildingBlock: FUNLAD_clean_linker_0, # of connection points: 2
#     Edge 10, Type (0, 1), BuildingBlock: FUNLAD_clean_linker_0, # of connection points: 2
#     Edge 11, Type (0, 1), BuildingBlock: FUNLAD_clean_linker_0, # of connection points: 2
# Relax obj value: 0.031
# Max RMSD: 0.087
# Mean RMSD: 0.074
data_MOF--net-pts--node1-MUDLON_clean_sbu_0--node2-AZAVOO_clean_sbu_0--edge1-FUNLAD_clean_linker_0
_symmetry_space_group_name_H-M    P1
_symmetry_Int_Tables_number       1
_symmetry_cell_setting            triclinic
loop_
_symmetry_equiv_pos_as_xyz
'x, y, z'
_cell_length_a     25.968306
_cell_length_b     27.343621
_cell_length_c     45.133652
_cell_angle_alpha  89.857359
_cell_angle_beta   96.361817
_cell_angle_gamma 89.742199
loop_
_atom_site_label
_atom_site_type_symbol
_atom_site_fract_x
_atom_site_fract_y
_atom_site_fract_z
_atom_type_partial_charge
Mg0 Mg 0.56063 0.00646 0.02142 0.0
C1 C 0.52445 0.05565 0.96246 0.0
O2 O 0.56714 0.03564 0.9549 0.0
C3 C 0.61613 0.00422 0.08093 0.0
O4 O 0.59143 0.96242 0.07778 0.0
C5 C 0.45944 0.99173 0.04421 0.0
O6 O 0.45506 0.03542 0.03205 0.0
O7 O 0.50023 0.96676 0.0416 0.0
O8 O 0.51663 0.05563 0.98979 0.0
O9 O 0.61254 0.96624 0.99517 0.0
C10 C 0.65868 0.98254 0.99691 0.0
O11 O 0.67239 0.01682 0.01649 0.0
O12 O 0.60965 0.0354 0.05981 0.0
Mg13 Mg 0.08967 0.51635 0.52651 0.0
C14 C 0.0152 0.55407 0.56864 0.0
O15 O 0.02232 0.51015 0.58027 0.0
C16 C 0.10349 0.46458 0.47187 0.0
O17 O 0.15012 0.47822 0.48294 0.0
C18 C 0.14608 0.61107 0.52053 0.0
O19 O 0.11901 0.62336 0.54231 0.0
O20 O 0.14743 0.5664 0.51295 0.0
O21 O 0.03271 0.56345 0.54404 0.0
O22 O 0.11402 0.46182 0.56016 0.0
C23 C 0.1343 0.46969 0.58664 0.0
O24 O 0.14772 0.51435 0.59479 0.0
O25 O 0.06526 0.47613 0.48588 0.0
Mg26 Mg 0.11635 0.00835 0.29814 0.0
O27 O 0.0367 -0.00312 0.27108 0.0
O28 O 0.97756 0.99368 0.30337 0.0
Mg29 Mg 0.01835 -0.00042 0.35063 0.0
C30 C 0.98968 0.99364 0.27672 0.0
C31 C 0.19409 -0.00165 0.25319 0.0
O32 O 0.21201 0.97054 0.27582 0.0
O33 O 0.09391 0.08864 0.30537 0.0
O34 O 0.03698 0.07843 0.33875 0.0
O35 O 0.13004 0.92783 0.30557 0.0
O36 O 0.09185 0.97546 0.33586 0.0
C37 C 0.06252 0.10589 0.32274 0.0
C38 C 0.1083 0.93261 0.32984 0.0
O39 O 0.15293 0.02307 0.25513 0.0
Mg40 Mg 0.02131 0.00058 0.75251 0.0
O41 O 0.09995 -0.00518 0.78166 0.0
O42 O 0.16121 0.9852 0.75109 0.0
Mg43 Mg 0.12277 0.98289 0.70311 0.0
C44 C 0.14752 0.99026 0.77722 0.0
C45 C 0.93599 0.00262 0.7921 0.0
O46 O 0.91859 0.97762 0.76827 0.0
O47 O 0.04204 0.07915 0.74016 0.0
O48 O 0.10185 0.06363 0.70917 0.0
O49 O 1.01028 0.91945 0.75128 0.0
O50 O 0.04896 0.96075 0.71816 0.0
C51 C 0.07441 0.09353 0.72258 0.0
C52 C 0.03343 0.91934 0.72734 0.0
O53 O 0.98057 0.0221 0.79296 0.0
C54 C 0.37418 0.00202 0.06396 0.0
C55 C 0.4217 0.97697 0.0648 0.0
C56 C 0.34204 -0.0046 0.08646 0.0
C57 C 0.35702 0.96389 0.1106 0.0
C58 C 0.40272 0.93616 0.11028 0.0
C59 C 0.43488 0.94266 0.08762 0.0
C60 C 0.32706 0.96021 0.13683 0.0
C61 C 0.29645 -0.00339 0.14524 0.0
C62 C 0.27008 -0.00449 0.17291 0.0
C63 C 0.227 0.02618 0.17494 0.0
C64 C 0.2022 0.02744 0.20095 0.0
C65 C 0.22039 -0.00163 0.22565 0.0
H66 H 0.32261 0.94397 0.19767 0.0
C67 C 0.2639 0.96818 0.22376 0.0
C68 C 0.28852 0.9668 0.19778 0.0
H69 H 0.27921 0.94551 0.24242 0.0
H70 H 0.36248 0.0281 0.04636 0.0
H71 H 0.30602 0.01572 0.085 0.0
H72 H 0.41482 0.911 0.12833 0.0
H73 H 0.47123 0.92278 0.08888 0.0
H74 H 0.33281 0.92741 0.15039 0.0
H75 H 0.29078 0.02944 0.1317 0.0
H76 H 0.21232 0.04916 0.15628 0.0
H77 H 0.16885 0.05115 0.20169 0.0
C78 C 0.10306 0.38881 0.60287 0.0
C79 C 0.13475 0.42993 0.609 0.0
C80 C 0.10045 0.35226 0.62423 0.0
C81 C 0.12991 0.35561 0.6522 0.0
C82 C 0.1626 0.39601 0.65817 0.0
C83 C 0.16444 0.43328 0.63692 0.0
C84 C 0.12956 0.31533 0.67427 0.0
C85 C 0.08645 0.28944 0.67749 0.0
C86 C 0.0867 0.24249 0.69414 0.0
C87 C 0.04061 0.22586 0.70435 0.0
C88 C 0.03728 0.17828 0.71557 0.0
C89 C 0.07972 0.14618 0.71606 0.0
H90 H 0.16589 0.22213 0.68819 0.0
C91 C 0.12648 0.16356 0.70712 0.0
C92 C 0.13005 0.21118 0.69639 0.0
H93 H 0.15993 0.13967 0.70737 0.0
H94 H 0.07954 0.38507 0.58164 0.0
H95 H 0.0761 0.32086 0.61855 0.0
H96 H 0.1863 0.39897 0.6794 0.0
H97 H 0.18924 0.4645 0.64226 0.0
H98 H 0.16581 0.30628 0.68756 0.0
H99 H 0.0495 0.3019 0.66625 0.0
H100 H 1.00652 0.24913 0.70263 0.0
H101 H 1.0007 0.16578 0.72218 0.0
C102 C 0.69834 0.04046 0.10635 0.0
C103 C 0.65424 0.01118 0.1074 0.0
C104 C 0.73771 0.04049 0.13033 0.0
C105 C 0.73322 0.01148 0.15578 0.0
C106 C 0.6878 0.98447 0.15726 0.0
C107 C 0.64904 0.98394 0.1333 0.0
C108 C 0.77446 0.00804 0.18135 0.0
C109 C 0.82533 0.01465 0.17909 0.0
C110 C 0.86658 0.00735 0.20453 0.0
C111 C 0.91813 0.00049 0.19858 0.0
C112 C 0.95806 -0.00554 0.22188 0.0
C113 C 0.94732 -0.00483 0.25174 0.0
H114 H 0.81737 0.01479 0.24038 0.0
C115 C 0.89568 0.00158 0.25766 0.0
C116 C 0.85596 0.00802 0.23446 0.0
H117 H 0.8859 0.00315 0.28036 0.0
H118 H 0.70333 0.06177 0.08661 0.0
H119 H 0.77151 0.06295 0.12876 0.0
H120 H 0.68292 0.96234 0.1767 0.0
H121 H 0.61532 0.96127 0.13485 0.0
H122 H 0.76228 -0.00454 0.20228 0.0
H123 H 0.83772 0.02305 0.15745 0.0
H124 H 0.92766 4e-05 0.17581 0.0
H125 H 0.9974 0.98998 0.21646 0.0
C126 C 1.00554 0.6437 0.57803 0.0
C127 C 1.00036 0.59506 0.58744 0.0
C128 C 1.00242 0.68237 0.59793 0.0
C129 C 0.99381 0.67325 0.62766 0.0
C130 C 0.98434 0.62512 0.63637 0.0
C131 C 0.98797 0.58631 0.61654 0.0
C132 C 0.99567 0.71306 0.6501 0.0
C133 C 0.02856 0.75107 0.64964 0.0
C134 C 0.03236 0.79213 0.67139 0.0
C135 C 0.05699 0.83526 0.66375 0.0
C136 C 0.05935 0.8759 0.68253 0.0
C137 C 0.03748 0.87426 0.70961 0.0
H138 H 0.99467 0.75681 0.70648 0.0
C139 C 0.01495 0.83042 0.71801 0.0
C140 C 1.01244 0.78972 0.69915 0.0
H141 H 0.99793 0.82789 0.73881 0.0
H142 H 1.01445 0.65191 0.55567 0.0
H143 H 1.00773 0.71927 0.59011 0.0
H144 H 0.97665 0.61725 0.65901 0.0
H145 H 0.98336 0.54933 0.62447 0.0
H146 H 0.9709 0.70953 0.6678 0.0
H147 H 0.05376 0.75288 0.63199 0.0
H148 H 0.07326 0.83809 0.64272 0.0
H149 H 0.07692 0.90905 0.6753 0.0
C150 C 0.42943 0.06734 0.94655 0.0
C151 C 0.48059 0.06478 0.93911 0.0
C152 C 0.38738 0.06506 0.92432 0.0
C153 C 0.39569 0.06038 0.89416 0.0
C154 C 0.44672 0.06182 0.88666 0.0
C155 C 0.48871 0.06365 0.90885 0.0
C156 C 0.35278 0.05232 0.86994 0.0
C157 C 0.30729 0.03116 0.87423 0.0
C158 C 0.26699 0.01871 0.84932 0.0
C159 C 0.2148 0.0164 0.85471 0.0
C160 C 0.17595 0.00564 0.8316 0.0
C161 C 0.1886 -0.00373 0.80262 0.0
H162 H 0.3197 0.00678 0.81581 0.0
C163 C 0.24113 -0.00352 0.79761 0.0
C164 C 0.27982 0.00748 0.82062 0.0
H165 H 0.25254 0.98902 0.77568 0.0
H166 H 0.42171 0.06856 0.96963 0.0
H167 H 0.34862 0.06604 0.93097 0.0
H168 H 0.4543 0.05911 0.86358 0.0
H169 H 0.52758 0.06198 0.90232 0.0
H170 H 0.36049 0.0616 0.84746 0.0
H171 H 0.29895 0.02215 0.89663 0.0
H172 H 0.2039 0.02403 0.87673 0.0
H173 H 0.13599 0.00566 0.83635 0.0
C174 C 0.05024 0.4104 0.43545 0.0
C175 C 0.09743 0.43335 0.44497 0.0
C176 C 0.04706 0.37673 0.41196 0.0
C177 C 0.09107 0.36571 0.39743 0.0
C178 C 0.13748 0.39028 0.40626 0.0
C179 C 0.14063 0.42377 0.42963 0.0
C180 C 0.09229 0.325 0.3757 0.0
C181 C 0.04983 0.30509 0.36069 0.0
C182 C 0.05135 0.25718 0.34532 0.0
C183 C 1.00832 0.22647 0.34531 0.0
C184 C 1.01112 0.17795 0.3362 0.0
C185 C 0.0568 0.15927 0.32637 0.0
H186 H 0.12894 0.26301 0.3318 0.0
C187 C 0.09827 0.19113 0.32367 0.0
C188 C 0.09567 0.23976 0.33316 0.0
H189 H 0.13377 0.17782 0.31592 0.0
H190 H 0.01633 0.41693 0.44688 0.0
H191 H 1.01079 0.35786 0.40643 0.0
H192 H 0.17201 0.38246 0.39562 0.0
H193 H 0.17756 0.44106 0.43621 0.0
H194 H 0.12998 0.30871 0.37376 0.0
H195 H 1.01199 0.32099 0.36262 0.0
H196 H 0.97346 0.23908 0.35414 0.0
H197 H 0.97816 0.15442 0.33806 0.0
C198 C 0.74451 0.98857 0.97714 0.0
C199 C 0.69343 0.97088 0.97395 0.0
C200 C 0.77527 0.98518 0.95373 0.0
C201 C 0.75552 0.96425 0.9264 0.0
C202 C 0.70568 0.94372 0.92387 0.0
C203 C 0.6748 0.94713 0.94736 0.0
C204 C 0.78536 0.96379 0.90005 0.0
C205 C 0.82192 -0.00275 0.89558 0.0
C206 C 0.85008 -0.00114 0.86856 0.0
C207 C 0.89792 0.02316 0.87004 0.0
C208 C 0.92563 0.02539 0.84514 0.0
C209 C 0.90578 0.00368 0.81812 0.0
H210 H 0.79211 0.96094 0.83865 0.0
C211 C 0.85724 0.98061 0.81641 0.0
C212 C 0.82965 0.97832 0.84124 0.0
H213 H 0.84048 0.96389 0.79585 0.0
H214 H 0.76039 0.00642 0.99752 0.0
H215 H 0.81425 -0.00054 0.95714 0.0
H216 H 0.68976 0.92666 0.90324 0.0
H217 H 0.63566 0.93305 0.94418 0.0
H218 H 0.77509 0.936 0.88335 0.0
H219 H 0.83196 0.02508 0.9123 0.0
H220 H 0.91431 0.03992 0.89067 0.0
H221 H 0.96285 0.04352 0.84721 0.0
C222 C 0.14672 0.69822 0.50372 0.0
C223 C 0.16054 0.64915 0.49959 0.0
C224 C 0.14877 0.73241 0.48084 0.0
C225 C 0.16477 0.71823 0.45334 0.0
C226 C 0.18308 0.67039 0.45018 0.0
C227 C 0.18072 0.63602 0.47302 0.0
C228 C 0.16107 0.75211 0.42739 0.0
C229 C 0.1224 0.78522 0.42243 0.0
C230 C 0.11664 0.82032 0.39705 0.0
C231 C 0.08717 0.86286 0.39985 0.0
C232 C 0.08264 0.89836 0.37744 0.0
C233 C 0.10689 0.89188 0.3514 0.0
H234 H 0.16073 0.7797 0.36692 0.0
C235 C 0.13427 0.84819 0.34783 0.0
C236 C 0.13917 0.81271 0.37044 0.0
H237 H 0.15332 0.84202 0.32799 0.0
H238 H 0.13168 0.70981 0.52404 0.0
H239 H 0.13656 0.7696 0.48451 0.0
H240 H 0.19659 0.65885 0.42942 0.0
H241 H 0.19211 0.59861 0.46917 0.0
H242 H 0.18952 0.74808 0.41168 0.0
H243 H 0.09381 0.78782 0.43822 0.0
H244 H 0.06883 0.86945 0.41991 0.0
H245 H 0.06136 0.93152 0.38103 0.0
loop_
_geom_bond_atom_site_label_1
_geom_bond_atom_site_label_2
_geom_bond_distance
_geom_bond_site_symmetry_2
_ccdc_geom_bond_type
Mg0 O7 2.141 . S
Mg0 O8 2.048 1_554 S
Mg0 O9 2.048 1_554 S
Mg0 O12 2.141 . S
C1 O2 1.313 1_545 S
C1 O8 1.195 . S
O2 C1 1.313 1_565 S
C3 O4 1.245 1_545 S
C3 O12 1.289 . S
O4 C3 1.245 1_565 S
C5 O6 1.245 1_545 S
C5 O7 1.289 . S
O6 C5 1.245 1_565 S
O7 Mg0 2.141 . S
O7 C5 1.289 . S
O8 Mg0 2.048 1_556 S
O8 C1 1.195 . S
O9 Mg0 2.048 1_556 S
O9 C10 1.195 . S
C10 O9 1.195 . S
C10 O11 1.313 1_545 S
O11 C10 1.313 1_565 S
O12 Mg0 2.141 . S
O12 C3 1.289 . S
Mg13 O20 2.141 . S
Mg13 O21 2.048 . S
Mg13 O22 2.048 . S
Mg13 O25 2.141 . S
C14 O15 1.313 . S
C14 O21 1.195 . S
O15 C14 1.313 . S
C16 O17 1.245 . S
C16 O25 1.289 . S
O17 C16 1.245 . S
C18 O19 1.245 . S
C18 O20 1.289 . S
O19 C18 1.245 . S
O20 Mg13 2.141 . S
O20 C18 1.289 . S
O21 Mg13 2.048 . S
O21 C14 1.195 . S
O22 Mg13 2.048 . S
O22 C23 1.195 . S
C23 O22 1.195 . S
C23 O24 1.313 . S
O24 C23 1.313 . S
O25 Mg13 2.141 . S
O25 C16 1.289 . S
Mg26 O27 2.028 . S
Mg26 O33 1.986 . S
Mg26 O35 2.114 1_545 S
Mg26 O36 2.251 1_545 S
Mg26 O39 2.010 . S
O27 Mg26 2.028 . S
O27 C30 1.250 . S
O28 Mg29 2.028 . S
O28 C30 1.248 1_655 S
Mg29 O28 2.028 . S
Mg29 O34 2.032 1_655 S
Mg29 O36 2.079 1_645 S
C30 O27 1.250 . S
C30 O28 1.248 1_455 S
C31 O32 1.264 . S
C31 O39 1.249 . S
O32 C31 1.264 . S
O33 Mg26 1.986 . S
O33 C37 1.246 . S
O34 Mg29 2.032 1_455 S
O34 C37 1.259 . S
O35 Mg26 2.114 1_565 S
O35 C38 1.252 . S
O36 Mg26 2.251 1_565 S
O36 Mg29 2.079 1_465 S
O36 C38 1.273 . S
C37 O33 1.246 . S
C37 O34 1.259 . S
C38 O35 1.252 . S
C38 O36 1.273 . S
O39 Mg26 2.010 . S
O39 C31 1.249 . S
Mg40 O41 2.028 . S
Mg40 O47 1.986 . S
Mg40 O49 2.114 1_545 S
Mg40 O50 2.251 1_545 S
Mg40 O53 2.010 1_455 S
O41 Mg40 2.028 . S
O41 C44 1.250 . S
O42 Mg43 2.028 . S
O42 C44 1.248 . S
Mg43 O42 2.028 . S
Mg43 O48 2.032 . S
Mg43 O50 2.079 1_545 S
C44 O41 1.250 . S
C44 O42 1.248 . S
C45 O46 1.264 . S
C45 O53 1.249 . S
O46 C45 1.264 . S
O47 Mg40 1.986 . S
O47 C51 1.246 . S
O48 Mg43 2.032 . S
O48 C51 1.259 . S
O49 Mg40 2.114 1_565 S
O49 C52 1.252 . S
O50 Mg40 2.251 1_565 S
O50 Mg43 2.079 1_565 S
O50 C52 1.273 . S
C51 O47 1.246 . S
C51 O48 1.259 . S
C52 O49 1.252 . S
C52 O50 1.273 . S
O53 Mg40 2.010 1_655 S
O53 C45 1.249 . S
C54 C55 1.386 . S
C54 C56 1.383 . S
C54 H70 0.951 . S
C55 C54 1.386 . S
C55 C59 1.383 1_545 S
C56 C54 1.383 . S
C56 C57 1.402 1_545 S
C56 H71 0.951 . S
C57 C56 1.402 1_565 S
C57 C58 1.375 . S
C57 C60 1.481 . S
C58 C57 1.375 . S
C58 C59 1.367 . S
C58 H72 0.951 . S
C59 C55 1.383 1_565 S
C59 C58 1.367 . S
C59 H73 0.950 . S
C60 C57 1.481 . S
C60 C61 1.297 . S
C60 H74 0.950 . S
C61 C60 1.297 . S
C61 C62 1.479 . S
C61 H75 0.950 . S
C62 C61 1.479 . S
C62 C63 1.375 1_565 S
C62 C68 1.404 . S
C63 C62 1.375 1_545 S
C63 C64 1.369 . S
C63 H76 0.950 . S
C64 C63 1.369 . S
C64 C65 1.392 . S
C64 H77 0.951 . S
C65 C64 1.392 . S
C65 C67 1.384 1_545 S
H66 C68 0.949 . S
C67 C65 1.384 1_565 S
C67 C68 1.385 . S
C67 H69 0.950 . S
C68 C62 1.404 . S
C68 H66 0.949 . S
C68 C67 1.385 . S
H69 C67 0.950 . S
H70 C54 0.951 . S
H71 C56 0.951 . S
H72 C58 0.951 . S
H73 C59 0.950 . S
H74 C60 0.950 . S
H75 C61 0.950 . S
H76 C63 0.950 . S
H77 C64 0.951 . S
C78 C79 1.386 . S
C78 C80 1.383 . S
C78 H94 0.951 1_455 S
C79 C78 1.386 . S
C79 C83 1.383 . S
C80 C78 1.383 . S
C80 C81 1.402 . S
C80 H95 0.951 . S
C81 C80 1.402 . S
C81 C82 1.375 . S
C81 C84 1.481 . S
C82 C81 1.375 . S
C82 C83 1.367 . S
C82 H96 0.951 . S
C83 C79 1.383 . S
C83 C82 1.367 . S
C83 H97 0.950 . S
C84 C81 1.481 . S
C84 C85 1.297 . S
C84 H98 0.950 . S
C85 C84 1.297 . S
C85 C86 1.479 . S
C85 H99 0.950 . S
C86 C85 1.479 . S
C86 C87 1.375 . S
C86 C92 1.404 . S
C87 C86 1.375 . S
C87 C88 1.369 . S
C87 H100 0.950 1_455 S
C88 C87 1.369 . S
C88 C89 1.392 . S
C88 H101 0.951 1_455 S
C89 C88 1.392 . S
C89 C91 1.384 . S
H90 C92 0.949 . S
C91 C89 1.384 . S
C91 C92 1.385 . S
C91 H93 0.950 . S
C92 C86 1.404 . S
C92 H90 0.949 . S
C92 C91 1.385 . S
H93 C91 0.950 . S
H94 C78 0.951 1_655 S
H95 C80 0.951 . S
H96 C82 0.951 . S
H97 C83 0.950 . S
H98 C84 0.950 . S
H99 C85 0.950 . S
H100 C87 0.950 1_655 S
H101 C88 0.951 1_655 S
C102 C103 1.386 . S
C102 C104 1.383 . S
C102 H118 0.951 . S
C103 C102 1.386 . S
C103 C107 1.383 1_545 S
C104 C102 1.383 . S
C104 C105 1.402 . S
C104 H119 0.951 . S
C105 C104 1.402 . S
C105 C106 1.375 1_545 S
C105 C108 1.481 . S
C106 C105 1.375 1_565 S
C106 C107 1.367 . S
C106 H120 0.951 . S
C107 C103 1.383 1_565 S
C107 C106 1.367 . S
C107 H121 0.950 . S
C108 C105 1.481 . S
C108 C109 1.297 . S
C108 H122 0.950 1_545 S
C109 C108 1.297 . S
C109 C110 1.479 . S
C109 H123 0.950 . S
C110 C109 1.479 . S
C110 C111 1.375 . S
C110 C116 1.404 1_545 S
C111 C110 1.375 . S
C111 C112 1.369 . S
C111 H124 0.950 . S
C112 C111 1.369 . S
C112 C113 1.392 . S
C112 H125 0.951 . S
C113 C112 1.392 . S
C113 C115 1.384 1_545 S
H114 C116 0.949 . S
C115 C113 1.384 1_565 S
C115 C116 1.385 . S
C115 H117 0.950 . S
C116 C110 1.404 1_565 S
C116 H114 0.949 . S
C116 C115 1.385 . S
H117 C115 0.950 . S
H118 C102 0.951 . S
H119 C104 0.951 . S
H120 C106 0.951 . S
H121 C107 0.950 . S
H122 C108 0.950 1_565 S
H123 C109 0.950 . S
H124 C111 0.950 . S
H125 C112 0.951 . S
C126 C127 1.386 . S
C126 C128 1.383 . S
C126 H142 0.951 . S
C127 C126 1.386 . S
C127 C131 1.383 . S
C128 C126 1.383 . S
C128 C129 1.402 . S
C128 H143 0.951 . S
C129 C128 1.402 . S
C129 C130 1.375 . S
C129 C132 1.481 . S
C130 C129 1.375 . S
C130 C131 1.367 . S
C130 H144 0.951 . S
C131 C127 1.383 . S
C131 C130 1.367 . S
C131 H145 0.950 . S
C132 C129 1.481 . S
C132 C133 1.297 . S
C132 H146 0.950 . S
C133 C132 1.297 . S
C133 C134 1.479 . S
C133 H147 0.950 1_455 S
C134 C133 1.479 . S
C134 C135 1.371 1_455 S
C134 C140 1.404 . S
C135 C134 1.371 1_655 S
C135 C136 1.368 1_655 S
C135 H148 0.956 . S
C136 C135 1.368 1_455 S
C136 C137 1.392 . S
C136 H149 0.951 1_455 S
C137 C136 1.392 . S
C137 C139 1.384 . S
H138 C140 0.949 . S
C139 C137 1.384 . S
C139 C140 1.385 . S
C139 H141 0.950 . S
C140 C134 1.404 . S
C140 H138 0.949 . S
C140 C139 1.385 . S
H141 C139 0.950 . S
H142 C126 0.951 . S
H143 C128 0.951 . S
H144 C130 0.951 . S
H145 C131 0.950 . S
H146 C132 0.950 . S
H147 C133 0.950 1_655 S
H148 C135 0.956 . S
H149 C136 0.951 1_655 S
C150 C151 1.386 . S
C150 C152 1.383 . S
C150 H166 0.951 . S
C151 C150 1.386 . S
C151 C155 1.383 1_545 S
C152 C150 1.383 . S
C152 C153 1.402 . S
C152 H167 0.951 . S
C153 C152 1.402 . S
C153 C154 1.372 1_545 S
C153 C156 1.481 . S
C154 C153 1.372 1_565 S
C154 C155 1.367 . S
C154 H168 0.954 . S
C155 C151 1.383 1_565 S
C155 C154 1.367 . S
C155 H169 0.950 . S
C156 C153 1.481 . S
C156 C157 1.297 . S
C156 H170 0.950 . S
C157 C156 1.297 . S
C157 C158 1.479 . S
C157 H171 0.950 . S
C158 C157 1.479 . S
C158 C159 1.375 . S
C158 C164 1.404 . S
C159 C158 1.375 . S
C159 C160 1.369 . S
C159 H172 0.950 . S
C160 C159 1.369 . S
C160 C161 1.392 . S
C160 H173 0.951 . S
C161 C160 1.392 . S
C161 C163 1.384 . S
H162 C164 0.949 . S
C163 C161 1.384 . S
C163 C164 1.385 . S
C163 H165 0.950 . S
C164 C158 1.404 . S
C164 H162 0.949 . S
C164 C163 1.385 . S
H165 C163 0.950 . S
H166 C150 0.951 . S
H167 C152 0.951 . S
H168 C154 0.954 . S
H169 C155 0.950 . S
H170 C156 0.950 . S
H171 C157 0.950 . S
H172 C159 0.950 . S
H173 C160 0.951 . S
C174 C175 1.386 . S
C174 C176 1.383 . S
C174 H190 0.951 1_455 S
C175 C174 1.386 . S
C175 C179 1.383 . S
C176 C174 1.383 . S
C176 C177 1.402 . S
C176 H191 0.951 . S
C177 C176 1.402 . S
C177 C178 1.375 . S
C177 C180 1.481 . S
C178 C177 1.375 . S
C178 C179 1.367 . S
C178 H192 0.951 . S
C179 C175 1.383 . S
C179 C178 1.367 . S
C179 H193 0.950 . S
C180 C177 1.481 . S
C180 C181 1.297 . S
C180 H194 0.950 . S
C181 C180 1.297 . S
C181 C182 1.479 . S
C181 H195 0.950 . S
C182 C181 1.479 . S
C182 C183 1.375 . S
C182 C188 1.404 . S
C183 C182 1.375 . S
C183 C184 1.369 . S
C183 H196 0.950 1_455 S
C184 C183 1.369 . S
C184 C185 1.392 . S
C184 H197 0.951 . S
C185 C184 1.392 . S
C185 C187 1.384 . S
H186 C188 0.949 . S
C187 C185 1.384 . S
C187 C188 1.385 . S
C187 H189 0.950 . S
C188 C182 1.404 . S
C188 H186 0.949 . S
C188 C187 1.385 . S
H189 C187 0.950 . S
H190 C174 0.951 1_655 S
H191 C176 0.951 . S
H192 C178 0.951 . S
H193 C179 0.950 . S
H194 C180 0.950 . S
H195 C181 0.950 . S
H196 C183 0.950 1_655 S
H197 C184 0.951 . S
C198 C199 1.386 1_565 S
C198 C200 1.383 . S
C198 H214 0.951 . S
C199 C198 1.386 1_545 S
C199 C203 1.383 . S
C200 C198 1.383 . S
C200 C201 1.402 1_565 S
C200 H215 0.951 . S
C201 C200 1.402 1_545 S
C201 C202 1.375 . S
C201 C204 1.481 . S
C202 C201 1.375 . S
C202 C203 1.367 . S
C202 H216 0.951 . S
C203 C199 1.383 . S
C203 C202 1.367 . S
C203 H217 0.950 . S
C204 C201 1.481 . S
C204 C205 1.297 1_545 S
C204 H218 0.950 . S
C205 C204 1.297 1_565 S
C205 C206 1.479 . S
C205 H219 0.950 . S
C206 C205 1.479 . S
C206 C207 1.375 . S
C206 C212 1.404 1_565 S
C207 C206 1.375 . S
C207 C208 1.369 . S
C207 H220 0.950 . S
C208 C207 1.369 . S
C208 C209 1.392 1_565 S
C208 H221 0.951 . S
C209 C208 1.392 1_545 S
C209 C211 1.384 . S
H210 C212 0.949 . S
C211 C209 1.384 . S
C211 C212 1.385 . S
C211 H213 0.950 . S
C212 C206 1.404 1_545 S
C212 H210 0.949 . S
C212 C211 1.385 . S
H213 C211 0.950 . S
H214 C198 0.951 . S
H215 C200 0.951 . S
H216 C202 0.951 . S
H217 C203 0.950 . S
H218 C204 0.950 . S
H219 C205 0.950 . S
H220 C207 0.950 . S
H221 C208 0.951 . S
C222 C223 1.386 . S
C222 C224 1.383 . S
C222 H238 0.951 . S
C223 C222 1.386 . S
C223 C227 1.383 . S
C224 C222 1.383 . S
C224 C225 1.402 . S
C224 H239 0.951 . S
C225 C224 1.402 . S
C225 C226 1.375 . S
C225 C228 1.481 . S
C226 C225 1.375 . S
C226 C227 1.367 . S
C226 H240 0.951 . S
C227 C223 1.383 . S
C227 C226 1.367 . S
C227 H241 0.950 . S
C228 C225 1.481 . S
C228 C229 1.297 . S
C228 H242 0.950 . S
C229 C228 1.297 . S
C229 C230 1.479 . S
C229 H243 0.950 . S
C230 C229 1.479 . S
C230 C231 1.375 . S
C230 C236 1.404 . S
C231 C230 1.375 . S
C231 C232 1.369 . S
C231 H244 0.950 . S
C232 C231 1.369 . S
C232 C233 1.392 . S
C232 H245 0.951 . S
C233 C232 1.392 . S
C233 C235 1.384 . S
H234 C236 0.949 . S
C235 C233 1.384 . S
C235 C236 1.385 . S
C235 H237 0.950 . S
C236 C230 1.404 . S
C236 H234 0.949 . S
C236 C235 1.385 . S
H237 C235 0.950 . S
H238 C222 0.951 . S
H239 C224 0.951 . S
H240 C226 0.951 . S
H241 C227 0.950 . S
H242 C228 0.950 . S
H243 C229 0.950 . S
H244 C231 0.950 . S
H245 C232 0.951 . S
C65 C31 1.224 . S
C55 C5 1.377 . S
C89 C51 1.385 . S
C79 C23 1.453 . S
C113 C30 1.356 1_655 S
C103 C3 1.407 . S
C137 C52 1.481 . S
C127 C14 1.484 . S
C161 C44 1.444 . S
C151 C1 1.489 . S
C185 C37 1.383 . S
C175 C16 1.376 . S
C209 C45 1.208 . S
C199 C10 1.456 . S
C223 C18 1.406 . S
C233 C38 1.410 . S
