# Generated by pormake.
# Topology bcu-b, (8,8)-cn, num edge types: 1
# Building blocks:
#     Node 0, Type 0, BuildingBlock: TAGTUT_clean_sbu_1, # of connection points: 8
#     Node 1, Type 1, BuildingBlock: TAGTUT_clean_sbu_1, # of connection points: 8
#     Edge 2, Type (0, 1), BuildingBlock: EZIPEK_clean_linker_0, # of connection points: 2
#     Edge 3, Type (0, 1), BuildingBlock: EZIPEK_clean_linker_0, # of connection points: 2
#     Edge 4, Type (0, 1), BuildingBlock: EZIPEK_clean_linker_0, # of connection points: 2
#     Edge 5, Type (0, 1), BuildingBlock: EZIPEK_clean_linker_0, # of connection points: 2
#     Edge 6, Type (0, 1), BuildingBlock: EZIPEK_clean_linker_0, # of connection points: 2
#     Edge 7, Type (0, 1), BuildingBlock: EZIPEK_clean_linker_0, # of connection points: 2
#     Edge 8, Type (0, 1), BuildingBlock: EZIPEK_clean_linker_0, # of connection points: 2
#     Edge 9, Type (0, 1), BuildingBlock: EZIPEK_clean_linker_0, # of connection points: 2
# Relax obj value: 0.013
# Max RMSD: 0.070
# Mean RMSD: 0.070
data_MOF--net-bcu-b--node1-TAGTUT_clean_sbu_1--node2-TAGTUT_clean_sbu_1--edge1-EZIPEK_clean_linker_0
_symmetry_space_group_name_H-M    P1
_symmetry_Int_Tables_number       1
_symmetry_cell_setting            triclinic
loop_
_symmetry_equiv_pos_as_xyz
'x, y, z'
_cell_length_a     15.474798
_cell_length_b     14.650408
_cell_length_c     17.059197
_cell_angle_alpha  91.022771
_cell_angle_beta   92.692956
_cell_angle_gamma 113.80265
loop_
_atom_site_label
_atom_site_type_symbol
_atom_site_fract_x
_atom_site_fract_y
_atom_site_fract_z
_atom_type_partial_charge
C0 C 0.81002 0.17444 0.06897 0.0
C1 C 0.85654 0.17579 0.82508 0.0
C2 C 0.83421 0.79603 0.86396 0.0
Mg3 Mg 0.98365 0.2036 -0.02551 0.0
O4 O 0.9309 0.06647 -0.00794 0.0
Mg5 Mg 0.8003 0.98507 0.94899 0.0
Mg6 Mg 0.99964 0.98697 0.95816 0.0
O7 O 0.06981 0.90831 0.92443 0.0
Mg8 Mg 0.01855 0.77158 0.9424 0.0
Mg9 Mg 0.20019 -0.00883 -0.03024 0.0
C10 C 0.16144 0.17556 0.05505 0.0
C11 C 0.15667 0.12225 0.83702 0.0
O12 O 0.76177 0.08906 0.03341 0.0
O13 O 0.89563 0.22962 0.0553 0.0
O14 O 0.80754 0.09025 0.85049 0.0
O15 O 0.93521 0.23399 0.8597 0.0
O16 O 0.12562 0.23384 0.02554 0.0
O17 O 0.12749 0.08119 0.03866 0.0
C18 C 0.84427 0.85367 0.08082 0.0
O19 O 0.92932 0.88 0.05961 0.0
O20 O 0.78652 0.88354 0.04655 0.0
O21 O 0.24216 0.8905 0.885 0.0
O22 O 0.11039 0.74767 0.86342 0.0
O23 O 0.19366 0.88535 0.06839 0.0
C24 C 0.19563 0.80461 0.84981 0.0
O25 O 0.06437 0.74296 0.0591 0.0
O26 O 0.87674 0.74186 0.88985 0.0
C27 C 0.14376 0.79978 0.09364 0.0
O28 O 0.86924 0.89109 0.87906 0.0
O29 O 0.0708 0.09455 0.85672 0.0
O30 O 0.21431 0.09335 0.87264 0.0
C31 C 0.30678 0.67248 0.56876 0.0
C32 C 0.35895 0.67749 0.32499 0.0
C33 C 0.3414 0.30211 0.36347 0.0
Mg34 Mg 0.48406 0.70581 0.47632 0.0
O35 O 0.43298 0.56913 0.49429 0.0
Mg36 Mg 0.30261 0.48611 0.44884 0.0
Mg37 Mg 0.50336 0.49065 0.46056 0.0
O38 O 0.57198 0.41108 0.42657 0.0
Mg39 Mg 0.51907 0.27385 0.4439 0.0
Mg40 Mg 0.70255 0.49232 0.46965 0.0
C41 C 0.6685 0.68143 0.55485 0.0
C42 C 0.65875 0.62401 0.33797 0.0
O43 O 0.26036 0.58659 0.53354 0.0
O44 O 0.39202 0.7295 0.55522 0.0
O45 O 0.30909 0.59189 0.35021 0.0
O46 O 0.4383 0.73436 0.35957 0.0
O47 O 0.62576 0.73542 0.52898 0.0
O48 O 0.63381 0.58636 0.53978 0.0
C49 C 0.34629 0.35517 0.58162 0.0
O50 O 0.43217 0.38297 0.56193 0.0
O51 O 0.28859 0.38397 0.54598 0.0
O52 O 0.74099 0.38838 0.38511 0.0
O53 O 0.60709 0.24791 0.36306 0.0
O54 O 0.69519 0.38699 0.56806 0.0
C55 C 0.69273 0.30307 0.34946 0.0
O56 O 0.56749 0.24325 0.55863 0.0
O57 O 0.37708 0.24357 0.39274 0.0
C58 C 0.64614 0.30139 0.59334 0.0
O59 O 0.37569 0.3964 0.38014 0.0
O60 O 0.5737 0.5977 0.35917 0.0
O61 O 0.71644 0.59402 0.3722 0.0
C62 C 0.15159 0.2052 0.1979 0.0
C63 C 0.20836 0.20761 0.13369 0.0
C64 C 0.35132 0.273 0.22055 0.0
C65 C 0.29453 0.27052 0.28477 0.0
N66 N 0.14541 0.24825 0.33535 0.0
N67 N 0.35753 0.23015 0.08306 0.0
C68 C 0.19586 0.24045 0.27369 0.0
C69 C 0.30705 0.23781 0.14474 0.0
N70 N 0.05498 0.16488 0.18678 0.0
N71 N 0.44792 0.31325 0.2317 0.0
H72 H 0.32692 0.2071 0.02638 0.0
H73 H 0.42813 0.24045 0.0881 0.0
H74 H 0.48372 0.34072 0.28598 0.0
H75 H 0.49398 0.32645 0.18668 0.0
H76 H 0.00896 0.15165 0.23184 0.0
H77 H 0.01916 0.13738 0.13252 0.0
H78 H 0.07484 0.23805 0.33026 0.0
H79 H 0.17604 0.27136 0.39201 0.0
C80 C 0.7617 0.2949 0.14025 0.0
C81 C 0.77334 0.2037 0.13873 0.0
C82 C 0.74108 0.18264 0.27817 0.0
C83 C 0.72945 0.27385 0.27971 0.0
N84 N 0.7086 0.40641 0.20966 0.0
N85 N 0.79431 0.07122 0.20881 0.0
C86 C 0.73527 0.32788 0.21027 0.0
C87 C 0.76755 0.14969 0.20818 0.0
N88 N 0.77889 0.35164 0.07528 0.0
N89 N 0.72381 0.12585 0.34312 0.0
H90 H 0.81518 0.04437 0.15942 0.0
H91 H 0.80364 0.03723 0.25965 0.0
H92 H 0.70909 0.14961 0.3968 0.0
H93 H 0.71782 0.05247 0.34286 0.0
H94 H 0.78487 0.42501 0.07551 0.0
H95 H 0.79353 0.32783 0.02158 0.0
H96 H 0.69929 0.44044 0.15884 0.0
H97 H 0.68781 0.43331 0.25907 0.0
C98 C 0.72957 0.69543 0.13192 0.0
C99 C 0.80741 0.78873 0.14763 0.0
C100 C 0.77351 0.78227 0.28691 0.0
C101 C 0.69565 0.68899 0.27119 0.0
N102 N 0.5907 0.56184 0.17926 0.0
N103 N 0.91225 0.91602 0.23951 0.0
C104 C 0.67096 0.64709 0.19363 0.0
C105 C 0.83207 0.83067 0.22518 0.0
N106 N 0.71445 0.65207 0.05802 0.0
N107 N 0.78871 0.82553 0.36086 0.0
H108 H 0.95654 0.95227 0.19545 0.0
H109 H 0.93911 0.94788 0.2951 0.0
H110 H 0.74475 0.79271 0.4061 0.0
H111 H 0.83936 0.89655 0.37655 0.0
H112 H 0.6639 0.58098 0.0424 0.0
H113 H 0.75842 0.68487 0.01277 0.0
H114 H 0.56379 0.53011 0.12365 0.0
H115 H 0.54636 0.52561 0.22331 0.0
C116 C 0.21797 0.81301 0.2298 0.0
C117 C 0.19035 0.76136 0.1555 0.0
C118 C 0.28472 0.66424 0.18883 0.0
C119 C 0.31233 0.71589 0.26313 0.0
N120 N 0.29442 0.82872 0.35982 0.0
N121 N 0.20818 0.64846 0.05884 0.0
C122 C 0.27696 0.78835 0.28474 0.0
C123 C 0.2257 0.68888 0.1339 0.0
N124 N 0.18904 0.88754 0.24703 0.0
N125 N 0.31368 0.58973 0.1716 0.0
H126 H 0.16477 0.66273 0.01673 0.0
H127 H 0.24095 0.60519 0.03588 0.0
H128 H 0.36322 0.5756 0.20725 0.0
H129 H 0.28612 0.53887 0.12413 0.0
H130 H 0.21661 0.93841 0.29449 0.0
H131 H 0.13951 0.90169 0.21137 0.0
H132 H 0.26161 0.87194 0.38276 0.0
H133 H 0.33779 0.81442 0.40194 0.0
C134 C 0.20825 0.80807 0.70529 0.0
C135 C 0.23243 0.77788 0.77903 0.0
C136 C 0.29402 0.66888 0.71327 0.0
C137 C 0.26987 0.6991 0.63953 0.0
N138 N 0.21058 0.79966 0.56287 0.0
N139 N 0.29172 0.67732 0.85569 0.0
C140 C 0.22836 0.76909 0.63487 0.0
C141 C 0.27393 0.70787 0.78369 0.0
N142 N 0.16256 0.87102 0.70305 0.0
N143 N 0.33966 0.60589 0.71551 0.0
H144 H 0.28364 0.71001 0.90811 0.0
H145 H 0.31184 0.61841 0.86437 0.0
H146 H 0.3518 0.57214 0.6653 0.0
H147 H 0.36888 0.58909 0.76643 0.0
H148 H 0.1333 0.88776 0.65212 0.0
H149 H 0.15041 0.90476 0.75325 0.0
H150 H 0.19046 0.85858 0.5542 0.0
H151 H 0.21866 0.76697 0.51045 0.0
C152 C 0.17002 0.14786 0.69267 0.0
C153 C 0.19504 0.18801 0.77073 0.0
C154 C 0.33299 0.32955 0.72597 0.0
C155 C 0.30796 0.28939 0.64791 0.0
N156 N 0.21324 0.15517 0.55686 0.0
N157 N 0.2898 0.32221 0.86179 0.0
C158 C 0.22899 0.19707 0.63132 0.0
C159 C 0.27402 0.28033 0.78732 0.0
N160 N 0.08927 0.06333 0.67743 0.0
N161 N 0.41372 0.41409 0.74121 0.0
H162 H 0.24573 0.28904 0.90687 0.0
H163 H 0.34112 0.39261 0.8782 0.0
H164 H 0.45768 0.45214 0.69749 0.0
H165 H 0.44135 0.44365 0.79721 0.0
H166 H 0.06165 0.03378 0.62142 0.0
H167 H 0.04531 0.02528 0.72114 0.0
H168 H 0.16193 0.08476 0.54046 0.0
H169 H 0.2573 0.18834 0.51178 0.0
C170 C 0.73275 0.23984 0.78987 0.0
C171 C 0.80774 0.21442 0.76588 0.0
C172 C 0.76985 0.23725 0.62854 0.0
C173 C 0.69486 0.26266 0.65253 0.0
N174 N 0.61102 0.29994 0.75464 0.0
N175 N 0.89154 0.17709 0.66376 0.0
C176 C 0.67756 0.26653 0.73288 0.0
C177 C 0.82502 0.21053 0.68552 0.0
N178 N 0.7125 0.23503 0.86728 0.0
N179 N 0.79016 0.24213 0.55114 0.0
H180 H 0.93516 0.1605 0.70438 0.0
H181 H 0.90086 0.16056 0.60606 0.0
H182 H 0.74912 0.25702 0.50726 0.0
H183 H 0.84982 0.23633 0.53013 0.0
H184 H 0.65285 0.24085 0.8883 0.0
H185 H 0.75357 0.2202 0.91116 0.0
H186 H 0.60167 0.31644 0.81234 0.0
H187 H 0.56738 0.31649 0.71402 0.0
C188 C 0.7446 0.82205 0.74631 0.0
C189 C 0.76936 0.75558 0.79176 0.0
C190 C 0.75821 0.65557 0.67246 0.0
C191 C 0.7334 0.722 0.62701 0.0
N192 N 0.74821 0.89189 0.61895 0.0
N193 N 0.75431 0.58561 0.79978 0.0
C194 C 0.74027 0.81269 0.66338 0.0
C195 C 0.76243 0.66488 0.75537 0.0
N196 N 0.71704 0.88844 0.78257 0.0
N197 N 0.78576 0.58914 0.63623 0.0
H198 H 0.74599 0.58675 0.86014 0.0
H199 H 0.74282 0.51566 0.77525 0.0
H200 H 0.79573 0.59178 0.57617 0.0
H201 H 0.81195 0.54388 0.66694 0.0
H202 H 0.69082 0.93368 0.75187 0.0
H203 H 0.7071 0.8858 0.84263 0.0
H204 H 0.75966 0.96183 0.64348 0.0
H205 H 0.7564 0.8907 0.55858 0.0
loop_
_geom_bond_atom_site_label_1
_geom_bond_atom_site_label_2
_geom_bond_distance
_geom_bond_site_symmetry_2
_ccdc_geom_bond_type
C0 O12 1.241 . S
C0 O13 1.280 . S
C1 O14 1.277 . S
C1 O15 1.245 . S
C2 O26 1.247 . S
C2 O28 1.289 . S
Mg3 O4 1.926 . S
Mg3 O13 1.984 . S
Mg3 O15 1.988 1_554 S
Mg3 O16 2.061 1_655 S
O4 Mg3 1.926 . S
O4 Mg5 1.986 1_544 S
O4 Mg6 1.917 1_655 S
Mg5 O4 1.986 1_566 S
Mg5 O12 2.042 1_566 S
Mg5 O14 2.041 1_565 S
Mg5 O20 2.038 1_556 S
Mg5 O28 2.238 . S
Mg6 O4 1.917 1_455 S
Mg6 O7 1.917 1_544 S
Mg6 O17 2.106 . S
Mg6 O19 2.079 1_445 S
Mg6 O28 2.106 1_444 S
Mg6 O29 2.079 1_554 S
O7 Mg6 1.917 1_566 S
O7 Mg8 1.926 . S
O7 Mg9 1.986 1_566 S
Mg8 O7 1.926 . S
Mg8 O22 1.984 . S
Mg8 O25 1.988 1_556 S
Mg8 O26 2.061 1_455 S
Mg9 O7 1.986 1_544 S
Mg9 O17 2.238 . S
Mg9 O21 2.042 1_544 S
Mg9 O23 2.041 1_545 S
Mg9 O30 2.038 1_554 S
C10 O16 1.247 . S
C10 O17 1.289 . S
C11 O29 1.245 . S
C11 O30 1.274 . S
O12 C0 1.241 . S
O12 Mg5 2.042 1_544 S
O13 C0 1.280 . S
O13 Mg3 1.984 . S
O14 C1 1.277 . S
O14 Mg5 2.041 1_545 S
O15 C1 1.245 . S
O15 Mg3 1.988 1_556 S
O16 Mg3 2.061 1_455 S
O16 C10 1.247 . S
O17 Mg6 2.106 . S
O17 Mg9 2.238 . S
O17 C10 1.289 . S
C18 O19 1.245 . S
C18 O20 1.274 . S
O19 Mg6 2.079 1_665 S
O19 C18 1.245 . S
O20 Mg5 2.038 1_554 S
O20 C18 1.274 . S
O21 Mg9 2.042 1_566 S
O21 C24 1.241 . S
O22 Mg8 1.984 . S
O22 C24 1.280 . S
O23 Mg9 2.041 1_565 S
O23 C27 1.277 . S
C24 O21 1.241 . S
C24 O22 1.280 . S
O25 Mg8 1.988 1_554 S
O25 C27 1.245 . S
O26 C2 1.247 . S
O26 Mg8 2.061 1_655 S
C27 O23 1.277 . S
C27 O25 1.245 . S
O28 C2 1.289 . S
O28 Mg5 2.238 . S
O28 Mg6 2.106 1_666 S
O29 Mg6 2.079 1_556 S
O29 C11 1.245 . S
O30 Mg9 2.038 1_556 S
O30 C11 1.274 . S
C31 O43 1.241 . S
C31 O44 1.280 . S
C32 O45 1.277 . S
C32 O46 1.245 . S
C33 O57 1.247 . S
C33 O59 1.289 . S
Mg34 O35 1.926 . S
Mg34 O44 1.984 . S
Mg34 O46 1.988 . S
Mg34 O47 2.061 . S
O35 Mg34 1.926 . S
O35 Mg36 1.986 . S
O35 Mg37 1.917 . S
Mg36 O35 1.986 . S
Mg36 O43 2.042 . S
Mg36 O45 2.041 . S
Mg36 O51 2.038 . S
Mg36 O59 2.238 . S
Mg37 O35 1.917 . S
Mg37 O38 1.917 . S
Mg37 O48 2.106 . S
Mg37 O50 2.079 . S
Mg37 O59 2.106 . S
Mg37 O60 2.079 . S
O38 Mg37 1.917 . S
O38 Mg39 1.926 . S
O38 Mg40 1.986 . S
Mg39 O38 1.926 . S
Mg39 O53 1.984 . S
Mg39 O56 1.988 . S
Mg39 O57 2.061 . S
Mg40 O38 1.986 . S
Mg40 O48 2.238 . S
Mg40 O52 2.042 . S
Mg40 O54 2.041 . S
Mg40 O61 2.038 . S
C41 O47 1.247 . S
C41 O48 1.289 . S
C42 O60 1.245 . S
C42 O61 1.274 . S
O43 C31 1.241 . S
O43 Mg36 2.042 . S
O44 C31 1.280 . S
O44 Mg34 1.984 . S
O45 C32 1.277 . S
O45 Mg36 2.041 . S
O46 C32 1.245 . S
O46 Mg34 1.988 . S
O47 Mg34 2.061 . S
O47 C41 1.247 . S
O48 Mg37 2.106 . S
O48 Mg40 2.238 . S
O48 C41 1.289 . S
C49 O50 1.245 . S
C49 O51 1.274 . S
O50 Mg37 2.079 . S
O50 C49 1.245 . S
O51 Mg36 2.038 . S
O51 C49 1.274 . S
O52 Mg40 2.042 . S
O52 C55 1.241 . S
O53 Mg39 1.984 . S
O53 C55 1.280 . S
O54 Mg40 2.041 . S
O54 C58 1.277 . S
C55 O52 1.241 . S
C55 O53 1.280 . S
O56 Mg39 1.988 . S
O56 C58 1.245 . S
O57 C33 1.247 . S
O57 Mg39 2.061 . S
C58 O54 1.277 . S
C58 O56 1.245 . S
O59 C33 1.289 . S
O59 Mg36 2.238 . S
O59 Mg37 2.106 . S
O60 Mg37 2.079 . S
O60 C42 1.245 . S
O61 Mg40 2.038 . S
O61 C42 1.274 . S
C62 C63 1.363 . S
C62 C68 1.379 . S
C62 N70 1.356 . S
C63 C62 1.363 . S
C63 C69 1.363 . S
C64 C65 1.363 . S
C64 C69 1.379 . S
C64 N71 1.356 . S
C65 C64 1.363 . S
C65 C68 1.363 . S
N66 C68 1.356 . S
N66 H78 0.984 . S
N66 H79 0.985 . S
N67 C69 1.356 . S
N67 H72 0.984 . S
N67 H73 0.985 . S
C68 C62 1.379 . S
C68 C65 1.363 . S
C68 N66 1.356 . S
C69 C63 1.363 . S
C69 C64 1.379 . S
C69 N67 1.356 . S
N70 C62 1.356 . S
N70 H76 0.984 . S
N70 H77 0.984 . S
N71 C64 1.356 . S
N71 H74 0.984 . S
N71 H75 0.985 . S
H72 N67 0.984 . S
H73 N67 0.985 . S
H74 N71 0.984 . S
H75 N71 0.985 . S
H76 N70 0.984 . S
H77 N70 0.984 . S
H78 N66 0.984 . S
H79 N66 0.985 . S
C80 C81 1.363 . S
C80 C86 1.379 . S
C80 N88 1.356 . S
C81 C80 1.363 . S
C81 C87 1.363 . S
C82 C83 1.363 . S
C82 C87 1.379 . S
C82 N89 1.356 . S
C83 C82 1.363 . S
C83 C86 1.363 . S
N84 C86 1.356 . S
N84 H96 0.984 . S
N84 H97 0.985 . S
N85 C87 1.356 . S
N85 H90 0.984 . S
N85 H91 0.985 1_545 S
C86 C80 1.379 . S
C86 C83 1.363 . S
C86 N84 1.356 . S
C87 C81 1.363 . S
C87 C82 1.379 . S
C87 N85 1.356 . S
N88 C80 1.356 . S
N88 H94 0.984 . S
N88 H95 0.984 . S
N89 C82 1.356 . S
N89 H92 0.984 . S
N89 H93 0.985 . S
H90 N85 0.984 . S
H91 N85 0.985 1_565 S
H92 N89 0.984 . S
H93 N89 0.985 . S
H94 N88 0.984 . S
H95 N88 0.984 . S
H96 N84 0.984 . S
H97 N84 0.985 . S
C98 C99 1.363 . S
C98 C104 1.379 . S
C98 N106 1.356 . S
C99 C98 1.363 . S
C99 C105 1.363 . S
C100 C101 1.363 . S
C100 C105 1.379 . S
C100 N107 1.356 . S
C101 C100 1.363 . S
C101 C104 1.363 . S
N102 C104 1.356 . S
N102 H114 0.984 . S
N102 H115 0.985 . S
N103 C105 1.356 . S
N103 H108 0.984 . S
N103 H109 0.985 . S
C104 C98 1.379 . S
C104 C101 1.363 . S
C104 N102 1.356 . S
C105 C99 1.363 . S
C105 C100 1.379 . S
C105 N103 1.356 . S
N106 C98 1.356 . S
N106 H112 0.984 . S
N106 H113 0.984 . S
N107 C100 1.356 . S
N107 H110 0.984 . S
N107 H111 0.985 . S
H108 N103 0.984 . S
H109 N103 0.985 . S
H110 N107 0.984 . S
H111 N107 0.985 . S
H112 N106 0.984 . S
H113 N106 0.984 . S
H114 N102 0.984 . S
H115 N102 0.985 . S
C116 C117 1.363 . S
C116 C122 1.379 . S
C116 N124 1.356 . S
C117 C116 1.363 . S
C117 C123 1.363 . S
C118 C119 1.363 . S
C118 C123 1.379 . S
C118 N125 1.356 . S
C119 C118 1.363 . S
C119 C122 1.363 . S
N120 C122 1.356 . S
N120 H132 0.984 . S
N120 H133 0.985 . S
N121 C123 1.356 . S
N121 H126 0.984 . S
N121 H127 0.985 . S
C122 C116 1.379 . S
C122 C119 1.363 . S
C122 N120 1.356 . S
C123 C117 1.363 . S
C123 C118 1.379 . S
C123 N121 1.356 . S
N124 C116 1.356 . S
N124 H130 0.984 . S
N124 H131 0.984 . S
N125 C118 1.356 . S
N125 H128 0.984 . S
N125 H129 0.985 . S
H126 N121 0.984 . S
H127 N121 0.985 . S
H128 N125 0.984 . S
H129 N125 0.985 . S
H130 N124 0.984 . S
H131 N124 0.984 . S
H132 N120 0.984 . S
H133 N120 0.985 . S
C134 C135 1.363 . S
C134 C140 1.379 . S
C134 N142 1.356 . S
C135 C134 1.363 . S
C135 C141 1.363 . S
C136 C137 1.363 . S
C136 C141 1.379 . S
C136 N143 1.356 . S
C137 C136 1.363 . S
C137 C140 1.363 . S
N138 C140 1.356 . S
N138 H150 0.984 . S
N138 H151 0.985 . S
N139 C141 1.356 . S
N139 H144 0.984 . S
N139 H145 0.985 . S
C140 C134 1.379 . S
C140 C137 1.363 . S
C140 N138 1.356 . S
C141 C135 1.363 . S
C141 C136 1.379 . S
C141 N139 1.356 . S
N142 C134 1.356 . S
N142 H148 0.984 . S
N142 H149 0.984 . S
N143 C136 1.356 . S
N143 H146 0.984 . S
N143 H147 0.985 . S
H144 N139 0.984 . S
H145 N139 0.985 . S
H146 N143 0.984 . S
H147 N143 0.985 . S
H148 N142 0.984 . S
H149 N142 0.984 . S
H150 N138 0.984 . S
H151 N138 0.985 . S
C152 C153 1.363 . S
C152 C158 1.379 . S
C152 N160 1.356 . S
C153 C152 1.363 . S
C153 C159 1.363 . S
C154 C155 1.363 . S
C154 C159 1.379 . S
C154 N161 1.356 . S
C155 C154 1.363 . S
C155 C158 1.363 . S
N156 C158 1.356 . S
N156 H168 0.984 . S
N156 H169 0.985 . S
N157 C159 1.356 . S
N157 H162 0.984 . S
N157 H163 0.985 . S
C158 C152 1.379 . S
C158 C155 1.363 . S
C158 N156 1.356 . S
C159 C153 1.363 . S
C159 C154 1.379 . S
C159 N157 1.356 . S
N160 C152 1.356 . S
N160 H166 0.984 . S
N160 H167 0.984 . S
N161 C154 1.356 . S
N161 H164 0.984 . S
N161 H165 0.985 . S
H162 N157 0.984 . S
H163 N157 0.985 . S
H164 N161 0.984 . S
H165 N161 0.985 . S
H166 N160 0.984 . S
H167 N160 0.984 . S
H168 N156 0.984 . S
H169 N156 0.985 . S
C170 C171 1.363 . S
C170 C176 1.379 . S
C170 N178 1.356 . S
C171 C170 1.363 . S
C171 C177 1.363 . S
C172 C173 1.363 . S
C172 C177 1.379 . S
C172 N179 1.356 . S
C173 C172 1.363 . S
C173 C176 1.363 . S
N174 C176 1.356 . S
N174 H186 0.984 . S
N174 H187 0.985 . S
N175 C177 1.356 . S
N175 H180 0.984 . S
N175 H181 0.985 . S
C176 C170 1.379 . S
C176 C173 1.363 . S
C176 N174 1.356 . S
C177 C171 1.363 . S
C177 C172 1.379 . S
C177 N175 1.356 . S
N178 C170 1.356 . S
N178 H184 0.984 . S
N178 H185 0.984 . S
N179 C172 1.356 . S
N179 H182 0.984 . S
N179 H183 0.985 . S
H180 N175 0.984 . S
H181 N175 0.985 . S
H182 N179 0.984 . S
H183 N179 0.985 . S
H184 N178 0.984 . S
H185 N178 0.984 . S
H186 N174 0.984 . S
H187 N174 0.985 . S
C188 C189 1.363 . S
C188 C194 1.379 . S
C188 N196 1.356 . S
C189 C188 1.363 . S
C189 C195 1.363 . S
C190 C191 1.363 . S
C190 C195 1.379 . S
C190 N197 1.356 . S
C191 C190 1.363 . S
C191 C194 1.363 . S
N192 C194 1.356 . S
N192 H204 0.984 . S
N192 H205 0.985 . S
N193 C195 1.356 . S
N193 H198 0.984 . S
N193 H199 0.985 . S
C194 C188 1.379 . S
C194 C191 1.363 . S
C194 N192 1.356 . S
C195 C189 1.363 . S
C195 C190 1.379 . S
C195 N193 1.356 . S
N196 C188 1.356 . S
N196 H202 0.984 . S
N196 H203 0.984 . S
N197 C190 1.356 . S
N197 H200 0.984 . S
N197 H201 0.985 . S
H198 N193 0.984 . S
H199 N193 0.985 . S
H200 N197 0.984 . S
H201 N197 0.985 . S
H202 N196 0.984 . S
H203 N196 0.984 . S
H204 N192 0.984 . S
H205 N192 0.985 . S
C63 C10 1.084 . S
C65 C33 1.082 . S
C81 C0 1.498 . S
C83 C55 1.497 . S
C99 C18 1.583 . S
C101 C42 1.583 . S
C117 C27 1.641 . S
C119 C32 1.640 . S
C135 C24 1.498 . S
C137 C31 1.499 . S
C155 C49 1.583 . S
C153 C11 1.583 . S
C171 C1 1.641 . S
C173 C58 1.642 . S
C191 C41 1.084 . S
C189 C2 1.086 . S
