# Generated by pormake.
# Topology pth, (4,4)-cn, num edge types: 1
# Building blocks:
#     Node 0, Type 0, BuildingBlock: AZAVOO_clean_sbu_0, # of connection points: 4
#     Node 1, Type 0, BuildingBlock: AZAVOO_clean_sbu_0, # of connection points: 4
#     Node 2, Type 0, BuildingBlock: AZAVOO_clean_sbu_0, # of connection points: 4
#     Node 3, Type 1, BuildingBlock: MUDLON_clean_sbu_0, # of connection points: 4
#     Node 4, Type 1, BuildingBlock: MUDLON_clean_sbu_0, # of connection points: 4
#     Node 5, Type 1, BuildingBlock: MUDLON_clean_sbu_0, # of connection points: 4
#     Edge 6, Type (0, 1), BuildingBlock: EYOCIG_clean_linker_4, # of connection points: 2
#     Edge 7, Type (0, 1), BuildingBlock: EYOCIG_clean_linker_4, # of connection points: 2
#     Edge 8, Type (0, 1), BuildingBlock: EYOCIG_clean_linker_4, # of connection points: 2
#     Edge 9, Type (0, 1), BuildingBlock: EYOCIG_clean_linker_4, # of connection points: 2
#     Edge 10, Type (0, 1), BuildingBlock: EYOCIG_clean_linker_4, # of connection points: 2
#     Edge 11, Type (0, 1), BuildingBlock: EYOCIG_clean_linker_4, # of connection points: 2
#     Edge 12, Type (0, 1), BuildingBlock: EYOCIG_clean_linker_4, # of connection points: 2
#     Edge 13, Type (0, 1), BuildingBlock: EYOCIG_clean_linker_4, # of connection points: 2
#     Edge 14, Type (0, 1), BuildingBlock: EYOCIG_clean_linker_4, # of connection points: 2
#     Edge 15, Type (0, 1), BuildingBlock: EYOCIG_clean_linker_4, # of connection points: 2
#     Edge 16, Type (0, 1), BuildingBlock: EYOCIG_clean_linker_4, # of connection points: 2
#     Edge 17, Type (0, 1), BuildingBlock: EYOCIG_clean_linker_4, # of connection points: 2
# Relax obj value: 0.106
# Max RMSD: 0.232
# Mean RMSD: 0.137
data_MOF--net-pth--node1-AZAVOO_clean_sbu_0--node2-MUDLON_clean_sbu_0--edge1-EYOCIG_clean_linker_4
_symmetry_space_group_name_H-M    P1
_symmetry_Int_Tables_number       1
_symmetry_cell_setting            triclinic
loop_
_symmetry_equiv_pos_as_xyz
'x, y, z'
_cell_length_a     18.103764
_cell_length_b     18.673358
_cell_length_c     49.997197
_cell_angle_alpha  90.997085
_cell_angle_beta   93.313353
_cell_angle_gamma 122.82311
loop_
_atom_site_label
_atom_site_type_symbol
_atom_site_fract_x
_atom_site_fract_y
_atom_site_fract_z
_atom_type_partial_charge
Mg0 Mg 0.14496 0.10733 0.07223 0.0
O1 O 0.02405 0.0099 0.04523 0.0
O2 O 0.97979 0.0803 0.02061 0.0
Mg3 Mg 0.07945 0.22448 0.02923 0.0
C4 C 0.97109 0.01116 0.02775 0.0
C5 C 0.17024 0.9863 0.11131 0.0
O6 O 0.25395 0.04804 0.11374 0.0
O7 O 0.06815 0.14058 0.09886 0.0
O8 O 0.04956 0.22745 0.07297 0.0
O9 O 0.23445 0.12164 0.04002 0.0
O10 O 0.18146 0.20268 0.04496 0.0
C11 C 0.04695 0.195 0.09541 0.0
C12 C 0.22811 0.18384 0.03205 0.0
O13 O 0.11535 -0.00598 0.09687 0.0
Mg14 Mg 0.95985 0.02457 0.39302 0.0
O15 O 0.08041 0.05361 0.41993 0.0
O16 O 0.12773 0.17286 0.44492 0.0
Mg17 Mg 0.02958 0.21393 0.43691 0.0
C18 C 0.13468 0.11137 0.43744 0.0
C19 C 0.93405 0.87341 0.35281 0.0
O20 O 0.85042 0.84701 0.3495 0.0
O21 O 0.03849 0.13734 0.36671 0.0
O22 O 0.06101 0.24647 0.39336 0.0
O23 O 0.8684 0.94784 0.42499 0.0
O24 O 0.92483 0.08488 0.42062 0.0
C25 C 0.06268 0.21519 0.37069 0.0
C26 C 0.87597 0.01786 0.43314 0.0
O27 O 0.98747 0.93903 0.36795 0.0
Mg28 Mg 0.0128 0.00486 0.72744 0.0
O29 O 0.1127 0.12304 0.7539 0.0
O30 O 0.03814 0.16047 0.77826 0.0
Mg31 Mg 0.89011 0.06051 0.76973 0.0
C32 C 0.11017 0.17252 0.77104 0.0
C33 C 0.135 0.98609 0.68784 0.0
O34 O 0.07264 0.90453 0.68564 0.0
O35 O 0.97474 0.07923 0.70066 0.0
O36 O 0.88735 0.09681 0.72627 0.0
O37 O 0.00521 0.9188 0.75988 0.0
O38 O 0.91657 0.9654 0.75478 0.0
C39 C 0.9208 0.10197 0.70406 0.0
C40 C 0.94013 0.92179 0.76787 0.0
O41 O 0.12751 0.0373 0.70259 0.0
Mg42 Mg 0.066 0.56562 0.23295 0.0
C43 C 0.03888 0.44637 0.27558 0.0
O44 O 0.9573 0.42472 0.26999 0.0
C45 C 0.04426 0.66083 0.18975 0.0
O46 O 0.96158 0.60427 0.19369 0.0
C47 C 0.03699 0.43863 0.192 0.0
O48 O 0.95735 0.41795 0.19657 0.0
O49 O 0.10298 0.50286 0.20483 0.0
O50 O 0.10074 0.50547 0.2633 0.0
O51 O 0.09304 0.6609 0.26417 0.0
C52 C 0.02469 0.64658 0.27483 0.0
O53 O 0.94751 0.57945 0.26632 0.0
O54 O 0.10554 0.66204 0.20389 0.0
Mg55 Mg 0.55116 0.1039 0.56081 0.0
C56 C 0.42121 0.07642 0.51682 0.0
O57 O 0.40064 -0.00147 0.52066 0.0
C58 C 0.65944 0.08661 0.60339 0.0
O59 O 0.59843 0.00624 0.59678 0.0
C60 C 0.43048 0.06842 0.60286 0.0
O61 O 0.40288 0.99177 0.59289 0.0
O62 O 0.49394 0.13296 0.59292 0.0
O63 O 0.48499 0.13876 0.53114 0.0
O64 O 0.64779 0.12186 0.53323 0.0
C65 C 0.63118 0.05548 0.51999 0.0
O66 O 0.55742 0.98244 0.52284 0.0
O67 O 0.65798 0.14533 0.59141 0.0
Mg68 Mg 0.54787 0.58198 0.89974 0.0
C69 C 0.44672 0.45824 0.85399 0.0
O70 O 0.51059 0.44583 0.8594 0.0
C71 C 0.68834 0.68788 0.94208 0.0
O72 O 0.71243 0.63765 0.93311 0.0
C73 C 0.45734 0.4498 0.93849 0.0
O74 O 0.51587 0.43554 0.93021 0.0
O75 O 0.45298 0.5102 0.92904 0.0
O76 O 0.44293 0.51327 0.8681 0.0
O77 O 0.6205 0.68102 0.87191 0.0
C78 C 0.67254 0.67263 0.8582 0.0
O79 O 0.67807 0.60598 0.86098 0.0
O80 O 0.61934 0.68131 0.93143 0.0
C81 C 0.04003 0.28065 0.13654 0.0
C82 C 0.04334 0.23862 0.11867 0.0
C83 C 0.04565 0.33841 0.15639 0.0
C84 C 0.04731 0.38719 0.17288 0.0
C85 C 0.78877 0.03432 0.47073 0.0
C86 C 0.82623 0.02138 0.45395 0.0
C87 C 0.74046 0.0501 0.48853 0.0
C88 C 0.69415 0.05773 0.50319 0.0
C89 C 0.84228 0.83514 0.80689 0.0
C90 C 0.88986 0.87307 0.78939 0.0
C91 C 0.78086 0.78512 0.82551 0.0
C92 C 0.72932 0.73712 0.84078 0.0
C93 C 0.11325 0.8468 0.13783 0.0
C94 C 0.13933 0.9105 0.12574 0.0
C95 C 0.08536 0.77733 0.15429 0.0
C96 C 0.06523 0.7236 0.17037 0.0
C97 C 0.25852 0.09935 0.4636 0.0
C98 C 0.20124 0.10261 0.45119 0.0
C99 C 0.32039 0.09511 0.48101 0.0
C100 C 0.36799 0.08929 0.49752 0.0
C101 C 0.25546 0.29815 0.79728 0.0
C102 C 0.19123 0.24004 0.78466 0.0
C103 C 0.3244 0.35965 0.81554 0.0
C104 C 0.3791 0.40577 0.83322 0.0
C105 C 0.84095 0.12436 0.66243 0.0
C106 C 0.87973 0.11399 0.68076 0.0
C107 C 0.78256 0.11973 0.6415 0.0
C108 C 0.72762 0.10743 0.62401 0.0
C109 C 0.84855 0.87013 -0.0 0.0
C110 C 0.90532 0.93276 0.01323 0.0
C111 C 0.78819 0.80344 -0.01879 0.0
C112 C 0.74155 0.75119 0.96333 0.0
C113 C -0.00669 0.79215 0.32694 0.0
C114 C 0.96665 0.8295 0.3388 0.0
C115 C 0.01833 0.74737 0.3107 0.0
C116 C 0.0288 0.70584 0.29445 0.0
C117 C 0.27321 0.04586 0.65944 0.0
C118 C 0.21034 0.01914 0.67248 0.0
C119 C 0.33948 0.06957 0.64166 0.0
C120 C 0.38607 0.07737 0.62422 0.0
C121 C 0.31026 0.28359 -0.00702 0.0
C122 C 0.27497 0.23497 0.01043 0.0
C123 C 0.35542 0.34499 0.97393 0.0
C124 C 0.39882 0.39579 0.95782 0.0
C125 C 0.07699 0.31043 0.33052 0.0
C126 C 0.07025 0.26353 0.34783 0.0
C127 C 0.06988 0.36106 0.31117 0.0
C128 C 0.05741 0.40095 0.29485 0.0
loop_
_geom_bond_atom_site_label_1
_geom_bond_atom_site_label_2
_geom_bond_distance
_geom_bond_site_symmetry_2
_ccdc_geom_bond_type
Mg0 O1 2.028 . S
Mg0 O7 1.986 . S
Mg0 O9 2.114 . S
Mg0 O10 2.251 . S
Mg0 O13 2.010 . S
O1 Mg0 2.028 . S
O1 C4 1.250 1_455 S
O2 Mg3 2.028 1_655 S
O2 C4 1.248 . S
Mg3 O2 2.028 1_455 S
Mg3 O8 2.032 . S
Mg3 O10 2.079 . S
C4 O1 1.250 1_655 S
C4 O2 1.248 . S
C5 O6 1.264 1_565 S
C5 O13 1.249 1_565 S
O6 C5 1.264 1_545 S
O7 Mg0 1.986 . S
O7 C11 1.246 . S
O8 Mg3 2.032 . S
O8 C11 1.259 . S
O9 Mg0 2.114 . S
O9 C12 1.252 . S
O10 Mg0 2.251 . S
O10 Mg3 2.079 . S
O10 C12 1.273 . S
C11 O7 1.246 . S
C11 O8 1.259 . S
C12 O9 1.252 . S
C12 O10 1.273 . S
O13 Mg0 2.010 . S
O13 C5 1.249 1_545 S
Mg14 O15 2.028 1_655 S
Mg14 O21 1.986 1_655 S
Mg14 O23 2.114 1_545 S
Mg14 O24 2.251 . S
Mg14 O27 2.010 1_545 S
O15 Mg14 2.028 1_455 S
O15 C18 1.250 . S
O16 Mg17 2.028 . S
O16 C18 1.248 . S
Mg17 O16 2.028 . S
Mg17 O22 2.032 . S
Mg17 O24 2.079 1_455 S
C18 O15 1.250 . S
C18 O16 1.248 . S
C19 O20 1.264 . S
C19 O27 1.249 . S
O20 C19 1.264 . S
O21 Mg14 1.986 1_455 S
O21 C25 1.246 . S
O22 Mg17 2.032 . S
O22 C25 1.259 . S
O23 Mg14 2.114 1_565 S
O23 C26 1.252 1_565 S
O24 Mg14 2.251 . S
O24 Mg17 2.079 1_655 S
O24 C26 1.273 . S
C25 O21 1.246 . S
C25 O22 1.259 . S
C26 O23 1.252 1_545 S
C26 O24 1.273 . S
O27 Mg14 2.010 1_565 S
O27 C19 1.249 . S
Mg28 O29 2.028 . S
Mg28 O35 1.986 1_455 S
Mg28 O37 2.114 1_545 S
Mg28 O38 2.251 1_445 S
Mg28 O41 2.010 . S
O29 Mg28 2.028 . S
O29 C32 1.250 . S
O30 Mg31 2.028 1_455 S
O30 C32 1.248 . S
Mg31 O30 2.028 1_655 S
Mg31 O36 2.032 . S
Mg31 O38 2.079 1_545 S
C32 O29 1.250 . S
C32 O30 1.248 . S
C33 O34 1.264 . S
C33 O41 1.249 1_565 S
O34 C33 1.264 . S
O35 Mg28 1.986 1_655 S
O35 C39 1.246 . S
O36 Mg31 2.032 . S
O36 C39 1.259 . S
O37 Mg28 2.114 1_565 S
O37 C40 1.252 1_455 S
O38 Mg28 2.251 1_665 S
O38 Mg31 2.079 1_565 S
O38 C40 1.273 . S
C39 O35 1.246 . S
C39 O36 1.259 . S
C40 O37 1.252 1_655 S
C40 O38 1.273 . S
O41 Mg28 2.010 . S
O41 C33 1.249 1_545 S
Mg42 O49 2.141 . S
Mg42 O50 2.048 . S
Mg42 O51 2.048 . S
Mg42 O54 2.141 . S
C43 O44 1.313 1_455 S
C43 O50 1.195 . S
O44 C43 1.313 1_655 S
C45 O46 1.245 1_455 S
C45 O54 1.289 . S
O46 C45 1.245 1_655 S
C47 O48 1.245 1_455 S
C47 O49 1.289 . S
O48 C47 1.245 1_655 S
O49 Mg42 2.141 . S
O49 C47 1.289 . S
O50 Mg42 2.048 . S
O50 C43 1.195 . S
O51 Mg42 2.048 . S
O51 C52 1.195 . S
C52 O51 1.195 . S
C52 O53 1.313 1_455 S
O53 C52 1.313 1_655 S
O54 Mg42 2.141 . S
O54 C45 1.289 . S
Mg55 O62 2.141 . S
Mg55 O63 2.048 . S
Mg55 O64 2.048 . S
Mg55 O67 2.141 . S
C56 O57 1.313 . S
C56 O63 1.195 . S
O57 C56 1.313 . S
C58 O59 1.245 . S
C58 O67 1.289 . S
O59 C58 1.245 . S
C60 O61 1.245 . S
C60 O62 1.289 . S
O61 C60 1.245 . S
O62 Mg55 2.141 . S
O62 C60 1.289 . S
O63 Mg55 2.048 . S
O63 C56 1.195 . S
O64 Mg55 2.048 . S
O64 C65 1.195 . S
C65 O64 1.195 . S
C65 O66 1.313 . S
O66 C65 1.313 . S
O67 Mg55 2.141 . S
O67 C58 1.289 . S
Mg68 O75 2.141 . S
Mg68 O76 2.048 . S
Mg68 O77 2.048 . S
Mg68 O80 2.141 . S
C69 O70 1.313 . S
C69 O76 1.195 . S
O70 C69 1.313 . S
C71 O72 1.245 . S
C71 O80 1.289 . S
O72 C71 1.245 . S
C73 O74 1.245 . S
C73 O75 1.289 . S
O74 C73 1.245 . S
O75 Mg68 2.141 . S
O75 C73 1.289 . S
O76 Mg68 2.048 . S
O76 C69 1.195 . S
O77 Mg68 2.048 . S
O77 C78 1.195 . S
C78 O77 1.195 . S
C78 O79 1.313 . S
O79 C78 1.313 . S
O80 Mg68 2.141 . S
O80 C71 1.289 . S
C81 C82 1.170 . S
C81 C83 1.380 . S
C82 C81 1.170 . S
C83 C81 1.380 . S
C83 C84 1.170 . S
C84 C83 1.170 . S
C85 C86 1.170 . S
C85 C87 1.380 . S
C86 C85 1.170 . S
C87 C85 1.380 . S
C87 C88 1.170 . S
C88 C87 1.170 . S
C89 C90 1.170 . S
C89 C91 1.380 . S
C90 C89 1.170 . S
C91 C89 1.380 . S
C91 C92 1.170 . S
C92 C91 1.170 . S
C93 C94 1.170 . S
C93 C95 1.380 . S
C94 C93 1.170 . S
C95 C93 1.380 . S
C95 C96 1.170 . S
C96 C95 1.170 . S
C97 C98 1.170 . S
C97 C99 1.380 . S
C98 C97 1.170 . S
C99 C97 1.380 . S
C99 C100 1.170 . S
C100 C99 1.170 . S
C101 C102 1.170 . S
C101 C103 1.380 . S
C102 C101 1.170 . S
C103 C101 1.380 . S
C103 C104 1.170 . S
C104 C103 1.170 . S
C105 C106 1.170 . S
C105 C107 1.380 . S
C106 C105 1.170 . S
C107 C105 1.380 . S
C107 C108 1.170 . S
C108 C107 1.170 . S
C109 C110 1.170 . S
C109 C111 1.380 . S
C110 C109 1.170 . S
C111 C109 1.380 . S
C111 C112 1.170 1_554 S
C112 C111 1.170 1_556 S
C113 C114 1.180 . S
C113 C115 1.371 1_655 S
C114 C113 1.180 . S
C115 C113 1.371 1_455 S
C115 C116 1.170 . S
C116 C115 1.170 . S
C117 C118 1.170 . S
C117 C119 1.380 . S
C118 C117 1.170 . S
C119 C117 1.380 . S
C119 C120 1.170 . S
C120 C119 1.170 . S
C121 C122 1.170 . S
C121 C123 1.383 . S
C122 C121 1.170 . S
C123 C121 1.383 . S
C123 C124 1.167 1_554 S
C124 C123 1.167 1_556 S
C125 C126 1.170 . S
C125 C127 1.380 . S
C126 C125 1.170 . S
C127 C125 1.380 . S
C127 C128 1.170 . S
C128 C127 1.170 . S
C84 C47 1.398 . S
C82 C11 1.387 . S
C86 C26 1.553 . S
C88 C65 1.527 . S
C90 C40 1.436 . S
C92 C78 1.445 . S
C94 C5 1.259 . S
C96 C45 1.399 . S
C100 C56 1.559 . S
C98 C18 1.545 . S
C102 C32 1.428 . S
C104 C69 1.454 . S
C108 C58 1.305 . S
C106 C39 1.305 . S
C110 C4 1.391 1_565 S
C112 C71 1.394 . S
C116 C52 1.451 . S
C114 C19 1.312 . S
C120 C60 1.303 . S
C118 C33 1.138 1_545 S
C124 C73 1.409 . S
C122 C12 1.395 . S
C126 C25 1.465 . S
C128 C43 1.481 . S
