# Generated by pormake.
# Topology rtl, (3,6)-cn, num edge types: 1
# Building blocks:
#     Node 0, Type 0, BuildingBlock: WUSLED_clean_sbu_0, # of connection points: 3
#     Node 1, Type 0, BuildingBlock: WUSLED_clean_sbu_0, # of connection points: 3
#     Node 2, Type 0, BuildingBlock: WUSLED_clean_sbu_0, # of connection points: 3
#     Node 3, Type 0, BuildingBlock: WUSLED_clean_sbu_0, # of connection points: 3
#     Node 4, Type 1, BuildingBlock: VOLQOD_clean_sbu_1, # of connection points: 6
#     Node 5, Type 1, BuildingBlock: VOLQOD_clean_sbu_1, # of connection points: 6
#     Edge 6, Type (0, 1), None
#     Edge 7, Type (0, 1), None
#     Edge 8, Type (0, 1), None
#     Edge 9, Type (0, 1), None
#     Edge 10, Type (0, 1), None
#     Edge 11, Type (0, 1), None
#     Edge 12, Type (0, 1), None
#     Edge 13, Type (0, 1), None
#     Edge 14, Type (0, 1), None
#     Edge 15, Type (0, 1), None
#     Edge 16, Type (0, 1), None
#     Edge 17, Type (0, 1), None
# Relax obj value: 0.076
# Max RMSD: 0.155
# Mean RMSD: 0.088
data_MOF--net-rtl--node1-WUSLED_clean_sbu_0--node2-VOLQOD_clean_sbu_1--edge1-none
_symmetry_space_group_name_H-M    P1
_symmetry_Int_Tables_number       1
_symmetry_cell_setting            triclinic
loop_
_symmetry_equiv_pos_as_xyz
'x, y, z'
_cell_length_a     28.319109
_cell_length_b     24.760768
_cell_length_c     18.069998
_cell_angle_alpha  90.976181
_cell_angle_beta   91.190809
_cell_angle_gamma 90.186137
loop_
_atom_site_label
_atom_site_type_symbol
_atom_site_fract_x
_atom_site_fract_y
_atom_site_fract_z
_atom_type_partial_charge
C0 C 0.14428 0.83109 0.23766 0.0
C1 C 0.12572 0.88125 0.21665 0.0
C2 C 0.09064 0.89332 0.33757 0.0
C3 C 0.09947 0.91221 0.26624 0.0
C4 C 0.10835 0.8424 0.35779 0.0
C5 C 0.1351 0.81168 0.30829 0.0
U6 U 0.17399 0.79725 0.0411 0.0
O7 O 0.24189 0.79443 0.98462 0.0
O8 O 0.19558 0.72295 0.98267 0.0
C9 C 0.23642 0.74362 0.96406 0.0
C10 C 0.1732 0.79941 0.18591 0.0
C11 C 0.27803 0.70926 0.97419 0.0
C12 C 0.33124 0.65585 0.05035 0.0
C13 C 0.29103 0.6884 0.04335 0.0
C14 C 0.34563 0.66553 0.91943 0.0
C15 C 0.35893 0.64396 0.98828 0.0
C16 C 0.30559 0.69779 0.91259 0.0
C17 C 0.10306 0.87136 0.89102 0.0
C18 C 0.11297 0.93517 0.79192 0.0
C19 C 0.057 0.86154 0.77596 0.0
C20 C 0.06931 0.84324 0.84675 0.0
C21 C 0.07782 0.90863 0.7489 0.0
C22 C 0.12535 0.91689 0.86205 0.0
C23 C 0.11251 0.85643 0.96893 0.0
O24 O 0.15032 0.76256 0.14582 0.0
O25 O 0.20271 0.82815 0.14732 0.0
O26 O 0.15175 0.8758 0.99923 0.0
O27 O 0.10398 0.80612 0.98694 0.0
H28 H 0.13188 0.89676 0.16196 0.0
H29 H 0.08611 0.95097 0.2486 0.0
H30 H 0.10222 0.82662 0.41231 0.0
H31 H 0.14888 0.77295 0.32533 0.0
H32 H 0.34047 0.63988 0.10415 0.0
H33 H 0.27012 0.6972 0.09159 0.0
H34 H 0.36596 0.6573 0.87042 0.0
H35 H 0.29608 0.7138 0.85887 0.0
H36 H 0.12985 0.97145 0.77244 0.0
H37 H 0.02951 0.84057 0.74424 0.0
H38 H 0.05125 0.80822 0.86771 0.0
H39 H 0.15133 0.93976 0.89448 0.0
C40 C 0.65568 0.69214 0.72803 0.0
C41 C 0.60848 0.67855 0.71144 0.0
C42 C 0.60131 0.63635 0.83155 0.0
C43 C 0.58149 0.65128 0.76279 0.0
C44 C 0.64856 0.65052 0.84827 0.0
C45 C 0.67547 0.6783 0.7969 0.0
U46 U 0.68275 0.71669 0.52718 0.0
O47 O 0.70223 0.79057 0.46924 0.0
O48 O 0.75041 0.72134 0.46982 0.0
C49 C 0.74467 0.77261 0.45399 0.0
C50 C 0.68492 0.7183 0.67244 0.0
C51 C 0.78484 0.80927 0.47298 0.0
C52 C 0.81551 0.89921 0.50315 0.0
C53 C 0.77738 0.86449 0.48795 0.0
C54 C 0.86955 0.82441 0.4887 0.0
C55 C 0.86209 0.87966 0.50345 0.0
C56 C 0.8314 0.78971 0.47332 0.0
C57 C 0.60152 0.64395 0.38186 0.0
C58 C 0.61678 0.61464 0.25529 0.0
C59 C 0.5364 0.61976 0.29809 0.0
C60 C 0.553 0.63795 0.36744 0.0
C61 C 0.56808 0.60689 0.24146 0.0
C62 C 0.63338 0.63308 0.32492 0.0
C63 C 0.61755 0.65831 0.45786 0.0
O64 O 0.71063 0.68518 0.6326 0.0
O65 O 0.66356 0.75535 0.63273 0.0
O66 O 0.61074 0.70859 0.47945 0.0
O67 O 0.6586 0.6389 0.47973 0.0
H68 H 0.59262 0.68832 0.65826 0.0
H69 H 0.54535 0.64082 0.74771 0.0
H70 H 0.66493 0.63962 0.90059 0.0
H71 H 0.71196 0.68821 0.81046 0.0
H72 H 0.80841 0.94154 0.51401 0.0
H73 H 0.74207 0.88117 0.48732 0.0
H74 H 0.90493 0.80797 0.48802 0.0
H75 H 0.83846 0.74756 0.46103 0.0
H76 H 0.64216 0.60532 0.21296 0.0
H77 H 0.49868 0.61455 0.2896 0.0
H78 H 0.52784 0.64615 0.41058 0.0
H79 H 0.67106 0.63766 0.33469 0.0
C80 C 0.85759 0.18947 0.2399 0.0
C81 C 0.90157 0.16851 0.21943 0.0
C82 C 0.91288 0.13049 0.34202 0.0
C83 C 0.92912 0.1395 0.27019 0.0
C84 C 0.86901 0.15233 0.36231 0.0
C85 C 0.84171 0.18154 0.31172 0.0
U86 U 0.8245 0.21773 0.0407 0.0
O87 O 0.75522 0.22138 0.98341 0.0
O88 O 0.80264 0.29176 0.98435 0.0
C89 C 0.76032 0.27265 0.96727 0.0
C90 C 0.82693 0.21693 0.18575 0.0
C91 C 0.71961 0.30827 0.98263 0.0
C92 C 0.63499 0.32484 0.97274 0.0
C93 C 0.6736 0.2903 0.96476 0.0
C94 C 0.68758 0.39605 0.0173 0.0
C95 C 0.64159 0.37841 0.99806 0.0
C96 C 0.72615 0.36143 0.00967 0.0
C97 C 0.90187 0.14963 0.89284 0.0
C98 C 0.88527 0.11291 0.76912 0.0
C99 C 0.96525 0.13796 0.80588 0.0
C100 C 0.94956 0.15463 0.87516 0.0
C101 C 0.93356 0.11549 0.75269 0.0
C102 C 0.86951 0.12986 0.83873 0.0
C103 C 0.88804 0.16176 0.96949 0.0
O104 O 0.84734 0.25468 0.14715 0.0
O105 O 0.79963 0.18463 0.14522 0.0
O106 O 0.84794 0.14101 0.99123 0.0
O107 O 0.89521 0.21168 0.99304 0.0
H108 H 0.91424 0.17384 0.16385 0.0
H109 H 0.96257 0.12315 0.2526 0.0
H110 H 0.8554 0.14639 0.41716 0.0
H111 H 0.80778 0.1972 0.32834 0.0
H112 H 0.60012 0.30988 0.95725 0.0
H113 H 0.66754 0.24975 0.94305 0.0
H114 H 0.69401 0.43699 0.03716 0.0
H115 H 0.76111 0.3768 0.0236 0.0
H116 H 0.85994 0.09592 0.7294 0.0
H117 H 1.00265 0.14095 0.79516 0.0
H118 H 0.97507 0.16988 0.91596 0.0
H119 H 0.83238 0.12595 0.85086 0.0
C120 C 0.3594 0.32541 0.27357 0.0
C121 C 0.37623 0.37701 0.29385 0.0
C122 C 0.40965 0.3877 0.17199 0.0
C123 C 0.40071 0.40794 0.24352 0.0
C124 C 0.39394 0.33531 0.15229 0.0
C125 C 0.36872 0.30448 0.20272 0.0
U126 U 0.33206 0.29782 0.47172 0.0
O127 O 0.26453 0.29208 0.52839 0.0
O128 O 0.31404 0.22386 0.53128 0.0
C129 C 0.27214 0.24217 0.54896 0.0
C130 C 0.33213 0.29412 0.32667 0.0
C131 C 0.23217 0.20471 0.53834 0.0
C132 C 0.16891 0.1633 0.46335 0.0
C133 C 0.20906 0.19674 0.4694 0.0
C134 C 0.17554 0.14558 0.59465 0.0
C135 C 0.1514 0.13787 0.52632 0.0
C136 C 0.2154 0.17854 0.60044 0.0
C137 C 0.40458 0.38262 0.61647 0.0
C138 C 0.43192 0.36797 0.74348 0.0
C139 C 0.42099 0.45895 0.6993 0.0
C140 C 0.40637 0.43844 0.6302 0.0
C141 C 0.43455 0.42412 0.75668 0.0
C142 C 0.41705 0.34736 0.67392 0.0
C143 C 0.39209 0.3633 0.54066 0.0
O144 O 0.35682 0.26061 0.36768 0.0
O145 O 0.30176 0.32266 0.36491 0.0
O146 O 0.35093 0.37904 0.51413 0.0
O147 O 0.40209 0.31288 0.52328 0.0
H148 H 0.37006 0.39371 0.34862 0.0
H149 H 0.4128 0.4478 0.26097 0.0
H150 H 0.4004 0.31858 0.09768 0.0
H151 H 0.35627 0.26454 0.18631 0.0
H152 H 0.15126 0.1581 0.40996 0.0
H153 H 0.22162 0.21689 0.4208 0.0
H154 H 0.16353 0.12639 0.64433 0.0
H155 H 0.23276 0.1843 0.65405 0.0
H156 H 0.44204 0.34 0.78638 0.0
H157 H 0.42237 0.5024 0.70713 0.0
H158 H 0.39714 0.46643 0.5868 0.0
H159 H 0.41601 0.30402 0.66488 0.0
O160 O 0.89506 0.96742 0.52446 0.0
Zn161 Zn 0.93769 0.03259 0.53687 0.0
O162 O 1.00392 0.0117 0.52911 0.0
Zn163 Zn 0.03806 0.04244 0.613 0.0
Zn164 Zn 0.00875 0.93274 0.53309 0.0
Zn165 Zn 0.03176 0.03972 0.43847 0.0
O166 O 0.09178 0.08794 0.58395 0.0
O167 O 0.0886 0.08971 0.46145 0.0
O168 O 0.924 0.06983 0.63528 0.0
O169 O 0.99655 0.08544 0.67894 0.0
O170 O 0.06402 0.98553 0.67744 0.0
O171 O 0.03667 0.90766 0.63152 0.0
O172 O 0.0495 0.90568 0.45016 0.0
O173 O 0.92049 0.08252 0.45423 0.0
O174 O 0.05705 0.97686 0.37753 0.0
O175 O 0.98213 0.08183 0.37974 0.0
C176 C 0.90264 0.91695 0.51677 0.0
C177 C 0.10821 0.10366 0.52313 0.0
C178 C 0.05943 0.93466 0.68132 0.0
C179 C 0.95209 0.09032 0.68423 0.0
C180 C 0.06401 0.92698 0.39098 0.0
C181 C 0.94024 0.09691 0.39493 0.0
O182 O 0.94448 0.89815 0.51836 0.0
O183 O 0.60932 0.46628 0.01489 0.0
Zn184 Zn 0.56896 0.53312 0.01886 0.0
O185 O 0.50237 0.51322 0.99996 0.0
Zn186 Zn 0.47913 0.5506 0.91292 0.0
Zn187 Zn 0.495 0.43439 0.98306 0.0
Zn188 Zn 0.46528 0.53678 0.0844 0.0
O189 O 0.42424 0.5984 0.93595 0.0
O190 O 0.4121 0.58717 0.0555 0.0
O191 O 0.59305 0.58343 0.94014 0.0
O192 O 0.52989 0.5948 0.86747 0.0
O193 O 0.45664 0.49832 0.83454 0.0
O194 O 0.46557 0.41662 0.88101 0.0
O195 O 0.45458 0.40108 0.06279 0.0
O196 O 0.57891 0.56901 0.12015 0.0
O197 O 0.4369 0.47268 0.13257 0.0
O198 O 0.50602 0.57367 0.16244 0.0
C199 C 0.60121 0.41639 1.00122 0.0
C200 C 0.40081 0.60837 0.99392 0.0
C201 C 0.4528 0.44726 0.82822 0.0
C202 C 0.57321 0.60393 0.88324 0.0
C203 C 0.43484 0.42209 0.11918 0.0
C204 C 0.55013 0.58278 0.17039 0.0
O205 O 0.55942 0.39895 0.98758 0.0
loop_
_geom_bond_atom_site_label_1
_geom_bond_atom_site_label_2
_geom_bond_distance
_geom_bond_site_symmetry_2
_ccdc_geom_bond_type
C0 C1 1.264 . S
C0 C5 1.479 . S
C0 C10 1.465 . S
C1 C0 1.264 . S
C1 C3 1.339 . S
C1 H28 0.931 . S
C2 C3 1.395 . S
C2 C4 1.320 . S
C3 C1 1.339 . S
C3 C2 1.395 . S
C3 H29 0.945 . S
C4 C2 1.320 . S
C4 C5 1.405 . S
C4 H30 0.930 . S
C5 C0 1.479 . S
C5 C4 1.405 . S
C5 H31 0.931 . S
U6 O7 2.454 . S
U6 O8 2.458 1_554 S
U6 C9 2.984 . S
U6 C10 2.847 . S
U6 C23 2.882 1_554 S
U6 O24 2.441 . S
U6 O25 2.420 . S
U6 O26 2.455 1_554 S
U6 O27 2.449 1_554 S
O7 U6 2.454 . S
O7 C9 1.353 . S
O8 U6 2.458 1_556 S
O8 C9 1.286 1_556 S
C9 U6 2.984 . S
C9 O7 1.353 . S
C9 O8 1.286 1_554 S
C9 C11 1.363 . S
C10 C0 1.465 . S
C10 U6 2.847 . S
C10 O24 1.249 . S
C10 O25 1.202 . S
C11 C9 1.363 . S
C11 C13 1.408 . S
C11 C16 1.342 1_554 S
C12 C13 1.310 . S
C12 C15 1.461 . S
C12 H32 0.932 . S
C13 C11 1.408 . S
C13 C12 1.310 . S
C13 H33 0.930 . S
C14 C15 1.474 1_556 S
C14 C16 1.285 . S
C14 H34 0.929 . S
C15 C12 1.461 . S
C15 C14 1.474 1_554 S
C16 C11 1.342 1_556 S
C16 C14 1.285 . S
C16 H35 0.930 . S
C17 C20 1.424 . S
C17 C22 1.245 . S
C17 C23 1.428 . S
C18 C21 1.260 . S
C18 C22 1.477 . S
C18 H36 0.932 . S
C19 C20 1.384 . S
C19 C21 1.479 . S
C19 H37 0.929 1_455 S
C20 C17 1.424 . S
C20 C19 1.384 . S
C20 H38 0.928 . S
C21 C18 1.260 . S
C21 C19 1.479 . S
C22 C17 1.245 . S
C22 C18 1.477 . S
C22 H39 0.932 . S
C23 U6 2.882 1_556 S
C23 C17 1.428 . S
C23 O26 1.301 . S
C23 O27 1.282 . S
O24 U6 2.441 . S
O24 C10 1.249 . S
O25 U6 2.420 . S
O25 C10 1.202 . S
O26 U6 2.455 1_556 S
O26 C23 1.301 . S
O27 U6 2.449 1_556 S
O27 C23 1.282 . S
H28 C1 0.931 . S
H29 C3 0.945 . S
H30 C4 0.930 . S
H31 C5 0.931 . S
H32 C12 0.932 . S
H33 C13 0.930 . S
H34 C14 0.929 . S
H35 C16 0.930 . S
H36 C18 0.932 . S
H37 C19 0.929 1_655 S
H38 C20 0.928 . S
H39 C22 0.932 . S
C40 C41 1.264 . S
C40 C45 1.479 . S
C40 C50 1.465 . S
C41 C40 1.264 . S
C41 C43 1.339 . S
C41 H68 0.931 . S
C42 C43 1.395 . S
C42 C44 1.320 . S
C43 C41 1.339 . S
C43 C42 1.395 . S
C43 H69 0.929 . S
C44 C42 1.320 . S
C44 C45 1.405 . S
C44 H70 0.930 . S
C45 C40 1.479 . S
C45 C44 1.405 . S
C45 H71 0.931 . S
U46 O47 2.454 . S
U46 O48 2.458 . S
U46 C49 2.984 . S
U46 C50 2.847 . S
U46 C63 2.882 . S
U46 O64 2.441 . S
U46 O65 2.420 . S
U46 O66 2.455 . S
U46 O67 2.449 . S
O47 U46 2.454 . S
O47 C49 1.353 . S
O48 U46 2.458 . S
O48 C49 1.286 . S
C49 U46 2.984 . S
C49 O47 1.353 . S
C49 O48 1.286 . S
C49 C51 1.363 . S
C50 C40 1.465 . S
C50 U46 2.847 . S
C50 O64 1.249 . S
C50 O65 1.202 . S
C51 C49 1.363 . S
C51 C53 1.408 . S
C51 C56 1.342 . S
C52 C53 1.310 . S
C52 C55 1.461 . S
C52 H72 0.932 . S
C53 C51 1.408 . S
C53 C52 1.310 . S
C53 H73 0.930 . S
C54 C55 1.474 . S
C54 C56 1.285 . S
C54 H74 0.929 . S
C55 C52 1.461 . S
C55 C54 1.474 . S
C56 C51 1.342 . S
C56 C54 1.285 . S
C56 H75 0.930 . S
C57 C60 1.424 . S
C57 C62 1.245 . S
C57 C63 1.428 . S
C58 C61 1.260 . S
C58 C62 1.477 . S
C58 H76 0.932 . S
C59 C60 1.384 . S
C59 C61 1.479 . S
C59 H77 0.929 . S
C60 C57 1.424 . S
C60 C59 1.384 . S
C60 H78 0.928 . S
C61 C58 1.260 . S
C61 C59 1.479 . S
C62 C57 1.245 . S
C62 C58 1.477 . S
C62 H79 0.932 . S
C63 U46 2.882 . S
C63 C57 1.428 . S
C63 O66 1.301 . S
C63 O67 1.282 . S
O64 U46 2.441 . S
O64 C50 1.249 . S
O65 U46 2.420 . S
O65 C50 1.202 . S
O66 U46 2.455 . S
O66 C63 1.301 . S
O67 U46 2.449 . S
O67 C63 1.282 . S
H68 C41 0.931 . S
H69 C43 0.929 . S
H70 C44 0.930 . S
H71 C45 0.931 . S
H72 C52 0.932 . S
H73 C53 0.930 . S
H74 C54 0.929 . S
H75 C56 0.930 . S
H76 C58 0.932 . S
H77 C59 0.929 . S
H78 C60 0.928 . S
H79 C62 0.932 . S
C80 C81 1.264 . S
C80 C85 1.479 . S
C80 C90 1.465 . S
C81 C80 1.264 . S
C81 C83 1.339 . S
C81 H108 0.931 . S
C82 C83 1.395 . S
C82 C84 1.320 . S
C83 C81 1.339 . S
C83 C82 1.395 . S
C83 H109 0.929 1_655 S
C84 C82 1.320 . S
C84 C85 1.405 . S
C84 H110 0.930 . S
C85 C80 1.479 . S
C85 C84 1.405 . S
C85 H111 0.931 . S
U86 O87 2.454 . S
U86 O88 2.458 1_554 S
U86 C89 2.984 . S
U86 C90 2.847 . S
U86 C103 2.882 1_554 S
U86 O104 2.441 . S
U86 O105 2.420 . S
U86 O106 2.455 1_554 S
U86 O107 2.449 1_554 S
O87 U86 2.454 . S
O87 C89 1.353 . S
O88 U86 2.458 1_556 S
O88 C89 1.286 1_556 S
C89 U86 2.984 . S
C89 O87 1.353 . S
C89 O88 1.286 1_554 S
C89 C91 1.363 . S
C90 C80 1.465 . S
C90 U86 2.847 . S
C90 O104 1.249 . S
C90 O105 1.202 . S
C91 C89 1.363 . S
C91 C93 1.408 . S
C91 C96 1.342 1_554 S
C92 C93 1.310 . S
C92 C95 1.461 . S
C92 H112 0.932 . S
C93 C91 1.408 . S
C93 C92 1.310 . S
C93 H113 0.930 . S
C94 C95 1.474 1_556 S
C94 C96 1.285 . S
C94 H114 0.929 . S
C95 C92 1.461 . S
C95 C94 1.474 1_554 S
C96 C91 1.342 1_556 S
C96 C94 1.285 . S
C96 H115 0.930 . S
C97 C100 1.424 . S
C97 C102 1.245 . S
C97 C103 1.428 . S
C98 C101 1.260 . S
C98 C102 1.477 . S
C98 H116 0.932 . S
C99 C100 1.384 . S
C99 C101 1.479 . S
C99 H117 0.929 1_655 S
C100 C97 1.424 . S
C100 C99 1.384 . S
C100 H118 0.928 . S
C101 C98 1.260 . S
C101 C99 1.479 . S
C102 C97 1.245 . S
C102 C98 1.477 . S
C102 H119 0.932 . S
C103 U86 2.882 1_556 S
C103 C97 1.428 . S
C103 O106 1.301 . S
C103 O107 1.282 . S
O104 U86 2.441 . S
O104 C90 1.249 . S
O105 U86 2.420 . S
O105 C90 1.202 . S
O106 U86 2.455 1_556 S
O106 C103 1.301 . S
O107 U86 2.449 1_556 S
O107 C103 1.282 . S
H108 C81 0.931 . S
H109 C83 0.929 1_455 S
H110 C84 0.930 . S
H111 C85 0.931 . S
H112 C92 0.932 . S
H113 C93 0.930 . S
H114 C94 0.929 . S
H115 C96 0.930 . S
H116 C98 0.932 . S
H117 C99 0.929 1_455 S
H118 C100 0.928 . S
H119 C102 0.932 . S
C120 C121 1.264 . S
C120 C125 1.479 . S
C120 C130 1.465 . S
C121 C120 1.264 . S
C121 C123 1.339 . S
C121 H148 0.931 . S
C122 C123 1.395 . S
C122 C124 1.320 . S
C123 C121 1.339 . S
C123 C122 1.395 . S
C123 H149 0.929 . S
C124 C122 1.320 . S
C124 C125 1.405 . S
C124 H150 0.930 . S
C125 C120 1.479 . S
C125 C124 1.405 . S
C125 H151 0.931 . S
U126 O127 2.454 . S
U126 O128 2.458 . S
U126 C129 2.984 . S
U126 C130 2.847 . S
U126 C143 2.882 . S
U126 O144 2.441 . S
U126 O145 2.420 . S
U126 O146 2.455 . S
U126 O147 2.449 . S
O127 U126 2.454 . S
O127 C129 1.353 . S
O128 U126 2.458 . S
O128 C129 1.286 . S
C129 U126 2.984 . S
C129 O127 1.353 . S
C129 O128 1.286 . S
C129 C131 1.363 . S
C130 C120 1.465 . S
C130 U126 2.847 . S
C130 O144 1.249 . S
C130 O145 1.202 . S
C131 C129 1.363 . S
C131 C133 1.408 . S
C131 C136 1.342 . S
C132 C133 1.310 . S
C132 C135 1.461 . S
C132 H152 0.932 . S
C133 C131 1.408 . S
C133 C132 1.310 . S
C133 H153 0.930 . S
C134 C135 1.474 . S
C134 C136 1.285 . S
C134 H154 0.929 . S
C135 C132 1.461 . S
C135 C134 1.474 . S
C136 C131 1.342 . S
C136 C134 1.285 . S
C136 H155 0.930 . S
C137 C140 1.424 . S
C137 C142 1.245 . S
C137 C143 1.428 . S
C138 C141 1.260 . S
C138 C142 1.477 . S
C138 H156 0.932 . S
C139 C140 1.384 . S
C139 C141 1.479 . S
C139 H157 0.929 . S
C140 C137 1.424 . S
C140 C139 1.384 . S
C140 H158 0.928 . S
C141 C138 1.260 . S
C141 C139 1.479 . S
C142 C137 1.245 . S
C142 C138 1.477 . S
C142 H159 0.932 . S
C143 U126 2.882 . S
C143 C137 1.428 . S
C143 O146 1.301 . S
C143 O147 1.282 . S
O144 U126 2.441 . S
O144 C130 1.249 . S
O145 U126 2.420 . S
O145 C130 1.202 . S
O146 U126 2.455 . S
O146 C143 1.301 . S
O147 U126 2.449 . S
O147 C143 1.282 . S
H148 C121 0.931 . S
H149 C123 0.929 . S
H150 C124 0.930 . S
H151 C125 0.931 . S
H152 C132 0.932 . S
H153 C133 0.930 . S
H154 C134 0.929 . S
H155 C136 0.930 . S
H156 C138 0.932 . S
H157 C139 0.929 . S
H158 C140 0.928 . S
H159 C142 0.932 . S
O160 Zn161 1.953 1_565 S
O160 C176 1.225 . S
Zn161 O160 1.953 1_545 S
Zn161 O162 1.949 1_655 S
Zn161 O168 1.919 . S
Zn161 O173 1.924 . S
O162 Zn161 1.949 1_455 S
O162 Zn163 1.923 . S
O162 Zn164 1.950 1_445 S
O162 Zn165 1.945 . S
Zn163 O162 1.923 . S
Zn163 O166 1.933 . S
Zn163 O169 1.941 . S
Zn163 O170 1.965 1_545 S
Zn164 O162 1.950 1_665 S
Zn164 O171 1.938 1_655 S
Zn164 O172 1.906 1_655 S
Zn164 O182 1.953 . S
Zn165 O162 1.945 . S
Zn165 O167 1.932 . S
Zn165 O174 1.977 1_545 S
Zn165 O175 1.910 1_455 S
O166 Zn163 1.933 . S
O166 C177 1.226 . S
O167 Zn165 1.932 . S
O167 C177 1.307 . S
O168 Zn161 1.919 . S
O168 C179 1.253 . S
O169 Zn163 1.941 . S
O169 C179 1.283 1_455 S
O170 Zn163 1.965 1_565 S
O170 C178 1.303 . S
O171 Zn164 1.938 1_455 S
O171 C178 1.247 . S
O172 Zn164 1.906 1_455 S
O172 C180 1.304 . S
O173 Zn161 1.924 . S
O173 C181 1.311 . S
O174 Zn165 1.977 1_565 S
O174 C180 1.272 . S
O175 Zn165 1.910 1_655 S
O175 C181 1.231 . S
C176 O160 1.225 . S
C176 O182 1.298 . S
C177 O166 1.226 . S
C177 O167 1.307 . S
C178 O170 1.303 . S
C178 O171 1.247 . S
C179 O168 1.253 . S
C179 O169 1.283 1_655 S
C180 O172 1.304 . S
C180 O174 1.272 . S
C181 O173 1.311 . S
C181 O175 1.231 . S
O182 Zn164 1.953 . S
O182 C176 1.298 . S
O183 Zn184 1.953 . S
O183 C199 1.225 1_556 S
Zn184 O183 1.953 . S
Zn184 O185 1.949 1_556 S
Zn184 O191 1.919 . S
Zn184 O196 1.924 1_556 S
O185 Zn184 1.949 1_554 S
O185 Zn186 1.923 1_554 S
O185 Zn187 1.950 . S
O185 Zn188 1.945 . S
Zn186 O185 1.923 1_556 S
Zn186 O189 1.933 . S
Zn186 O192 1.941 . S
Zn186 O193 1.965 . S
Zn187 O185 1.950 . S
Zn187 O194 1.938 1_554 S
Zn187 O195 1.906 . S
Zn187 O205 1.953 . S
Zn188 O185 1.945 . S
Zn188 O190 1.932 . S
Zn188 O197 1.977 . S
Zn188 O198 1.910 . S
O189 Zn186 1.933 . S
O189 C200 1.226 1_556 S
O190 Zn188 1.932 . S
O190 C200 1.307 . S
O191 Zn184 1.919 . S
O191 C202 1.253 . S
O192 Zn186 1.941 . S
O192 C202 1.283 . S
O193 Zn186 1.965 . S
O193 C201 1.303 . S
O194 Zn187 1.938 1_556 S
O194 C201 1.247 . S
O195 Zn187 1.906 . S
O195 C203 1.304 . S
O196 Zn184 1.924 1_554 S
O196 C204 1.311 . S
O197 Zn188 1.977 . S
O197 C203 1.272 . S
O198 Zn188 1.910 . S
O198 C204 1.231 . S
C199 O183 1.225 1_554 S
C199 O205 1.298 . S
C200 O189 1.226 1_554 S
C200 O190 1.307 . S
C201 O193 1.303 . S
C201 O194 1.247 . S
C202 O191 1.253 . S
C202 O192 1.283 . S
C203 O195 1.304 . S
C203 O197 1.272 . S
C204 O196 1.311 . S
C204 O198 1.231 . S
O205 Zn187 1.953 . S
O205 C199 1.298 . S
C177 C135 2.381 . S
C15 C200 2.382 . S
C55 C176 2.378 . S
C95 C199 2.339 . S
C180 C2 2.521 . S
C202 C42 2.452 . S
C82 C181 2.446 . S
C141 C201 1.936 . S
C204 C61 2.776 . S
C179 C101 2.198 . S
C203 C122 2.560 . S
C21 C178 1.987 . S
