# Generated by pormake.
# Topology pth, (4,4)-cn, num edge types: 1
# Building blocks:
#     Node 0, Type 0, BuildingBlock: NAHDIM_clean_sbu_0, # of connection points: 4
#     Node 1, Type 0, BuildingBlock: NAHDIM_clean_sbu_0, # of connection points: 4
#     Node 2, Type 0, BuildingBlock: NAHDIM_clean_sbu_0, # of connection points: 4
#     Node 3, Type 1, BuildingBlock: MUDLON_clean_sbu_0, # of connection points: 4
#     Node 4, Type 1, BuildingBlock: MUDLON_clean_sbu_0, # of connection points: 4
#     Node 5, Type 1, BuildingBlock: MUDLON_clean_sbu_0, # of connection points: 4
#     Edge 6, Type (0, 1), BuildingBlock: OJICUG_clean_linker_0, # of connection points: 2
#     Edge 7, Type (0, 1), BuildingBlock: OJICUG_clean_linker_0, # of connection points: 2
#     Edge 8, Type (0, 1), BuildingBlock: OJICUG_clean_linker_0, # of connection points: 2
#     Edge 9, Type (0, 1), BuildingBlock: OJICUG_clean_linker_0, # of connection points: 2
#     Edge 10, Type (0, 1), BuildingBlock: OJICUG_clean_linker_0, # of connection points: 2
#     Edge 11, Type (0, 1), BuildingBlock: OJICUG_clean_linker_0, # of connection points: 2
#     Edge 12, Type (0, 1), BuildingBlock: OJICUG_clean_linker_0, # of connection points: 2
#     Edge 13, Type (0, 1), BuildingBlock: OJICUG_clean_linker_0, # of connection points: 2
#     Edge 14, Type (0, 1), BuildingBlock: OJICUG_clean_linker_0, # of connection points: 2
#     Edge 15, Type (0, 1), BuildingBlock: OJICUG_clean_linker_0, # of connection points: 2
#     Edge 16, Type (0, 1), BuildingBlock: OJICUG_clean_linker_0, # of connection points: 2
#     Edge 17, Type (0, 1), BuildingBlock: OJICUG_clean_linker_0, # of connection points: 2
# Relax obj value: 0.076
# Max RMSD: 0.190
# Mean RMSD: 0.122
data_MOF--net-pth--node1-NAHDIM_clean_sbu_0--node2-MUDLON_clean_sbu_0--edge1-OJICUG_clean_linker_0
_symmetry_space_group_name_H-M    P1
_symmetry_Int_Tables_number       1
_symmetry_cell_setting            triclinic
loop_
_symmetry_equiv_pos_as_xyz
'x, y, z'
_cell_length_a     16.670594
_cell_length_b     16.751827
_cell_length_c     42.943018
_cell_angle_alpha  92.230146
_cell_angle_beta   89.799844
_cell_angle_gamma 120.59847
loop_
_atom_site_label
_atom_site_type_symbol
_atom_site_fract_x
_atom_site_fract_y
_atom_site_fract_z
_atom_type_partial_charge
C0 C 0.16812 0.05492 0.13909 0.0
O1 O 0.1967 0.13753 0.15211 0.0
O2 O 0.07215 0.20138 0.11366 0.0
Zn3 Zn 0.08556 0.10627 0.08726 0.0
O4 O 0.96091 0.01569 0.06686 0.0
C5 C 0.2648 0.22623 0.05739 0.0
O6 O 0.29851 0.25241 0.08596 0.0
O7 O 0.12334 0.03199 0.1132 0.0
C8 C 0.92829 0.03462 0.04336 0.0
O9 O 0.97707 0.1167 0.03147 0.0
C10 C 0.99347 0.18376 0.12416 0.0
O11 O 0.91992 0.10132 0.1183 0.0
O12 O 0.17861 0.16709 0.05311 0.0
C13 C 0.05181 0.19839 0.37022 0.0
O14 O 0.98834 0.11149 0.36334 0.0
O15 O 0.04362 0.99872 0.391 0.0
Zn16 Zn 0.07007 0.10669 0.42091 0.0
O17 O 0.95737 0.07211 0.44758 0.0
C18 C 0.26056 0.16257 0.43869 0.0
O19 O 0.27348 0.1663 0.40845 0.0
O20 O 0.09875 0.21725 0.39544 0.0
C21 C 0.94874 0.034 0.47342 0.0
O22 O 0.01363 0.01698 0.48243 0.0
C23 C 0.98839 0.91369 0.39637 0.0
O24 O 0.94721 0.89144 0.42339 0.0
O25 O 0.18028 0.13921 0.44896 0.0
C26 C 0.15611 0.00726 0.71284 0.0
O27 O 0.1784 0.99717 0.74114 0.0
O28 O 0.95947 0.1127 0.72839 0.0
Zn29 Zn 0.05185 0.08076 0.74535 0.0
O30 O 0.15629 0.19301 0.76767 0.0
C31 C 0.9106 0.90822 0.76868 0.0
O32 O 0.87581 0.90002 0.74053 0.0
O33 O 0.10266 0.03984 0.70939 0.0
C34 C 0.14143 0.23778 0.78927 0.0
O35 O 0.05518 0.21124 0.79679 0.0
C36 C 0.9792 0.16464 0.70535 0.0
O37 O 0.06196 0.19936 0.69297 0.0
O38 O 0.98836 0.97987 0.7761 0.0
Mg39 Mg 0.08931 0.62347 0.2549 0.0
C40 C 0.07331 0.47641 0.28986 0.0
O41 O 0.99497 0.44921 0.27455 0.0
C42 C 0.13878 0.7541 0.20696 0.0
O43 O 0.06102 0.67843 0.19817 0.0
C44 C 0.96959 0.45365 0.20566 0.0
O45 O 0.89125 0.43682 0.2186 0.0
O46 O 0.04667 0.5212 0.216 0.0
O47 O 0.13872 0.56063 0.288 0.0
O48 O 0.99462 0.65628 0.27986 0.0
C49 C 0.97958 0.64111 0.30873 0.0
O50 O 1.00238 0.58557 0.32167 0.0
O51 O 0.17794 0.75479 0.23251 0.0
Mg52 Mg 0.56081 0.09229 0.58161 0.0
C53 C 0.53228 0.17323 0.52389 0.0
O54 O 0.59008 0.14845 0.51257 0.0
C55 C 0.67613 0.16158 0.64066 0.0
O56 O 0.59268 0.11247 0.6523 0.0
C57 C 0.36653 1.00305 0.60697 0.0
O58 O 0.35242 0.03167 0.58061 0.0
O59 O 0.44484 0.00945 0.61186 0.0
O60 O 0.51612 0.16719 0.55293 0.0
O61 O 0.60481 0.01883 0.54971 0.0
C62 C 0.66719 1.00206 0.55864 0.0
O63 O 0.68941 0.01242 0.58844 0.0
O64 O 0.68319 0.17515 0.61157 0.0
Mg65 Mg 0.57157 0.60441 0.92077 0.0
C66 C 0.45268 0.49907 0.8672 0.0
O67 O 0.52818 0.4935 0.86429 0.0
C68 C 0.61518 0.72916 0.97809 0.0
O69 O 0.57549 0.64828 0.991 0.0
C70 C 0.4741 0.41753 0.95035 0.0
O71 O 0.42806 0.39391 0.92365 0.0
O72 O 0.54597 0.49815 0.95392 0.0
O73 O 0.44747 0.54564 0.8905 0.0
O74 O 0.68659 0.65252 0.88829 0.0
C75 C 0.67561 0.69905 0.86769 0.0
O76 O 0.60364 0.7109 0.86956 0.0
O77 O 0.61142 0.73105 0.94856 0.0
C78 C 0.89924 0.23427 0.15619 0.0
C79 C 0.98506 0.25467 0.14325 0.0
H80 H 0.82642 0.28135 0.18585 0.0
C81 C 0.06335 0.34318 0.14919 0.0
H82 H 0.83736 0.16684 0.15191 0.0
C83 C 0.05688 0.40869 0.16842 0.0
C84 C 0.97198 0.3874 0.1823 0.0
H85 H 0.13029 0.36157 0.1394 0.0
H86 H 0.11934 0.47553 0.17296 0.0
C87 C 0.89275 0.30002 0.17552 0.0
C88 C 0.86937 0.9878 0.52474 0.0
C89 C 0.86967 0.01396 0.494 0.0
H90 H 0.80435 0.96232 0.5692 0.0
C91 C 0.796 0.02485 0.48371 0.0
H92 H 0.92467 0.9781 0.53337 0.0
C93 C 0.72622 0.01459 0.50419 0.0
C94 C 0.72921 0.99417 0.53549 0.0
H95 H 0.79361 0.04396 0.46006 0.0
H96 H 0.6726 0.02723 0.49584 0.0
C97 C 0.80013 0.9784 0.54529 0.0
C98 C 0.89287 0.84341 0.82183 0.0
C99 C 0.85371 0.84271 0.79272 0.0
H100 H 0.86661 0.79554 0.86861 0.0
C101 C 0.75732 0.78448 0.78768 0.0
H102 H 0.96709 0.88727 0.82632 0.0
C103 C 0.70042 0.73366 0.81186 0.0
C104 C 0.73878 0.73813 0.84136 0.0
H105 H 0.72489 0.782 0.76556 0.0
H106 H 0.62565 0.6933 0.80782 0.0
C107 C 0.83574 0.79062 0.84594 0.0
C108 C 0.15104 0.89821 0.1405 0.0
C109 C 0.17871 0.98448 0.1556 0.0
H110 H 0.11925 0.75863 0.14499 0.0
C111 C 0.20885 0.99892 0.18702 0.0
H112 H 0.12885 0.88492 0.11623 0.0
C113 C 0.20417 0.92594 0.20357 0.0
C114 C 0.16902 0.83772 0.18888 0.0
H115 H 0.23122 0.06486 0.19927 0.0
H116 H 0.22159 0.93672 0.22824 0.0
C117 C 0.14603 0.82581 0.15695 0.0
C118 C 0.41865 0.18466 0.44936 0.0
C119 C 0.33628 0.17818 0.46053 0.0
H120 H 0.54598 0.18928 0.46067 0.0
C121 C 0.3247 0.1816 0.49291 0.0
H122 H 0.43005 0.18286 0.42456 0.0
C123 C 0.39161 0.18632 0.51362 0.0
C124 C 0.47122 0.18682 0.50242 0.0
H125 H 0.2625 0.17778 0.50231 0.0
H126 H 0.37856 0.18504 0.53838 0.0
C127 C 0.48527 0.18858 0.47008 0.0
C128 C 0.20634 0.35552 0.83421 0.0
C129 C 0.2208 0.31346 0.80746 0.0
H130 H 0.26882 0.44841 0.87424 0.0
C131 C 0.31242 0.34052 0.79912 0.0
H132 H 0.13652 0.33648 0.84116 0.0
C133 C 0.38756 0.40427 0.81794 0.0
C134 C 0.3731 0.44273 0.84553 0.0
H135 H 0.32624 0.3104 0.77851 0.0
H136 H 0.45707 0.42134 0.81124 0.0
C137 C 0.282 0.41982 0.8531 0.0
C138 C 0.91996 0.21563 0.6612 0.0
C139 C 0.90655 0.17768 0.69072 0.0
H140 H 0.85781 0.24139 0.6222 0.0
C141 C 0.82047 0.14632 0.7052 0.0
H142 H 0.98568 0.24096 0.64948 0.0
C143 C 0.74755 0.1475 0.68972 0.0
C144 C 0.75875 0.17932 0.65928 0.0
H145 H 0.80822 0.11773 0.7281 0.0
H146 H 0.68095 0.11904 0.70108 0.0
C147 C 0.8467 0.2162 0.64559 0.0
C148 C 0.7817 0.87938 0.04324 0.0
C149 C 0.83984 0.96209 0.02821 0.0
H150 H 0.66345 0.74201 0.03953 0.0
C151 C 0.81544 0.97212 0.99791 0.0
H152 H 0.79775 0.86996 0.06676 0.0
C153 C 0.73829 0.89837 0.98216 0.0
C154 C 0.68364 0.81343 0.99651 0.0
H155 H 0.85841 0.03528 0.98577 0.0
H156 H 0.72426 0.9065 0.95824 0.0
C157 C 0.70422 0.80613 0.02764 0.0
C158 C 0.99748 0.86204 0.34157 0.0
C159 C 0.97382 0.84038 0.37282 0.0
H160 H 0.0146 0.81478 0.29637 0.0
C161 C 0.93963 0.74878 0.38158 0.0
H162 H 0.02286 0.93177 0.33402 0.0
C163 C 0.93547 0.68186 0.36005 0.0
C164 C 0.96375 0.70473 0.3292 0.0
H165 H 0.92023 0.72976 0.40543 0.0
H166 H 0.91376 0.61318 0.36791 0.0
C167 C 0.99167 0.79466 0.3199 0.0
C168 C 0.27412 0.9736 0.68899 0.0
C169 C 0.20059 0.99087 0.68531 0.0
H170 H 0.38384 0.96261 0.66702 0.0
C171 C 0.17443 0.99917 0.65507 0.0
H172 H 0.2956 0.96613 0.71195 0.0
C173 C 0.22451 0.99643 0.6293 0.0
C174 C 0.30228 0.98588 0.63318 0.0
H175 H 0.11737 0.01137 0.65136 0.0
H176 H 0.20494 0.0073 0.60652 0.0
C177 C 0.32458 0.9713 0.66319 0.0
C178 C 0.41409 0.34804 0.03406 0.0
C179 C 0.32476 0.26881 0.03022 0.0
H180 H 0.53246 0.45707 1.01178 0.0
C181 C 0.29096 0.23292 0.9999 0.0
H182 H 0.44246 0.37708 0.05713 0.0
C183 C 0.34282 0.278 0.97399 0.0
C184 C 0.42952 0.36061 0.97771 0.0
H185 H 0.223 0.17129 0.99608 0.0
H186 H 0.31274 0.25013 0.951 0.0
C187 C 0.4659 0.39367 1.00806 0.0
C188 C 0.01273 0.24641 0.3212 0.0
C189 C 0.06563 0.27183 0.34898 0.0
H190 H 0.9756 0.29107 0.28082 0.0
C191 C 0.12875 0.36672 0.35609 0.0
H192 H 0.96434 0.17421 0.3147 0.0
C193 C 0.13572 0.43477 0.33625 0.0
C194 C 0.0792 0.40851 0.30923 0.0
H195 H 0.17099 0.38841 0.37726 0.0
H196 H 0.18219 0.50744 0.34264 0.0
C197 C 0.01934 0.31368 0.30168 0.0
loop_
_geom_bond_atom_site_label_1
_geom_bond_atom_site_label_2
_geom_bond_distance
_geom_bond_site_symmetry_2
_ccdc_geom_bond_type
C0 O1 1.160 . S
C0 O7 1.185 1_565 S
O1 C0 1.160 . S
O2 Zn3 1.899 . S
O2 C10 1.284 . S
Zn3 O2 1.899 . S
Zn3 O4 2.032 1_445 S
Zn3 O7 2.086 . S
Zn3 O12 1.977 . S
O4 Zn3 2.032 1_665 S
O4 C8 1.278 . S
C5 O6 1.203 . S
C5 O12 1.267 . S
O6 C5 1.203 . S
O7 C0 1.185 1_545 S
O7 Zn3 2.086 . S
C8 O4 1.278 . S
C8 O9 1.211 1_565 S
O9 C8 1.211 1_545 S
C10 O2 1.284 . S
C10 O11 1.273 1_455 S
O11 C10 1.273 1_655 S
O12 Zn3 1.977 . S
O12 C5 1.267 . S
C13 O14 1.160 . S
C13 O20 1.185 . S
O14 C13 1.160 . S
O15 Zn16 1.899 . S
O15 C23 1.284 1_545 S
Zn16 O15 1.899 . S
Zn16 O17 2.032 1_455 S
Zn16 O20 2.086 . S
Zn16 O25 1.977 . S
O17 Zn16 2.032 1_655 S
O17 C21 1.278 . S
C18 O19 1.203 . S
C18 O25 1.267 . S
O19 C18 1.203 . S
O20 C13 1.185 . S
O20 Zn16 2.086 . S
C21 O17 1.278 . S
C21 O22 1.211 . S
O22 C21 1.211 . S
C23 O15 1.284 1_565 S
C23 O24 1.273 1_455 S
O24 C23 1.273 1_655 S
O25 Zn16 1.977 . S
O25 C18 1.267 . S
C26 O27 1.160 . S
C26 O33 1.185 1_545 S
O27 C26 1.160 . S
O28 Zn29 1.899 1_655 S
O28 C36 1.284 . S
Zn29 O28 1.899 1_455 S
Zn29 O30 2.032 . S
Zn29 O33 2.086 1_545 S
Zn29 O38 1.977 1_445 S
O30 Zn29 2.032 . S
O30 C34 1.278 . S
C31 O32 1.203 . S
C31 O38 1.267 . S
O32 C31 1.203 . S
O33 C26 1.185 1_565 S
O33 Zn29 2.086 1_565 S
C34 O30 1.278 . S
C34 O35 1.211 . S
O35 C34 1.211 . S
C36 O28 1.284 . S
C36 O37 1.273 . S
O37 C36 1.273 . S
O38 Zn29 1.977 1_665 S
O38 C31 1.267 . S
Mg39 O46 2.141 . S
Mg39 O47 2.048 . S
Mg39 O48 2.048 . S
Mg39 O51 2.141 . S
C40 O41 1.313 1_455 S
C40 O47 1.195 . S
O41 C40 1.313 1_655 S
C42 O43 1.245 1_455 S
C42 O51 1.289 . S
O43 C42 1.245 1_655 S
C44 O45 1.245 1_455 S
C44 O46 1.289 . S
O45 C44 1.245 1_655 S
O46 Mg39 2.141 . S
O46 C44 1.289 . S
O47 Mg39 2.048 . S
O47 C40 1.195 . S
O48 Mg39 2.048 . S
O48 C49 1.195 . S
C49 O48 1.195 . S
C49 O50 1.313 1_455 S
O50 C49 1.313 1_655 S
O51 Mg39 2.141 . S
O51 C42 1.289 . S
Mg52 O59 2.141 . S
Mg52 O60 2.048 . S
Mg52 O61 2.048 . S
Mg52 O64 2.141 . S
C53 O54 1.313 1_545 S
C53 O60 1.195 . S
O54 C53 1.313 1_565 S
C55 O56 1.245 1_545 S
C55 O64 1.289 . S
O56 C55 1.245 1_565 S
C57 O58 1.245 1_545 S
C57 O59 1.289 . S
O58 C57 1.245 1_565 S
O59 Mg52 2.141 . S
O59 C57 1.289 . S
O60 Mg52 2.048 . S
O60 C53 1.195 . S
O61 Mg52 2.048 . S
O61 C62 1.195 . S
C62 O61 1.195 . S
C62 O63 1.313 1_545 S
O63 C62 1.313 1_565 S
O64 Mg52 2.141 . S
O64 C55 1.289 . S
Mg65 O72 2.141 . S
Mg65 O73 2.048 . S
Mg65 O74 2.048 . S
Mg65 O77 2.141 . S
C66 O67 1.313 . S
C66 O73 1.195 . S
O67 C66 1.313 . S
C68 O69 1.245 . S
C68 O77 1.289 . S
O69 C68 1.245 . S
C70 O71 1.245 . S
C70 O72 1.289 . S
O71 C70 1.245 . S
O72 Mg65 2.141 . S
O72 C70 1.289 . S
O73 Mg65 2.048 . S
O73 C66 1.195 . S
O74 Mg65 2.048 . S
O74 C75 1.195 . S
C75 O74 1.195 . S
C75 O76 1.313 . S
O76 C75 1.313 . S
O77 Mg65 2.141 . S
O77 C68 1.289 . S
C78 C79 1.387 1_655 S
C78 H82 0.950 . S
C78 C87 1.390 . S
C79 C78 1.387 1_455 S
C79 C81 1.387 . S
H80 C87 0.950 . S
C81 C79 1.387 . S
C81 C83 1.390 . S
C81 H85 0.950 . S
H82 C78 0.950 . S
C83 C81 1.390 . S
C83 C84 1.387 . S
C83 H86 0.950 . S
C84 C83 1.387 . S
C84 C87 1.387 1_455 S
H85 C81 0.950 . S
H86 C83 0.950 . S
C87 C78 1.390 . S
C87 H80 0.950 . S
C87 C84 1.387 1_655 S
C88 C89 1.387 1_565 S
C88 H92 0.950 . S
C88 C97 1.390 . S
C89 C88 1.387 1_545 S
C89 C91 1.387 . S
H90 C97 0.950 . S
C91 C89 1.387 . S
C91 C93 1.390 . S
C91 H95 0.950 . S
H92 C88 0.950 . S
C93 C91 1.390 . S
C93 C94 1.387 . S
C93 H96 0.950 . S
C94 C93 1.387 . S
C94 C97 1.387 1_545 S
H95 C91 0.950 . S
H96 C93 0.950 . S
C97 C88 1.390 . S
C97 H90 0.950 . S
C97 C94 1.387 1_565 S
C98 C99 1.387 . S
C98 H102 0.950 . S
C98 C107 1.390 . S
C99 C98 1.387 . S
C99 C101 1.387 . S
H100 C107 0.950 . S
C101 C99 1.387 . S
C101 C103 1.390 . S
C101 H105 0.950 . S
H102 C98 0.950 . S
C103 C101 1.390 . S
C103 C104 1.387 . S
C103 H106 0.950 . S
C104 C103 1.387 . S
C104 C107 1.387 . S
H105 C101 0.950 . S
H106 C103 0.950 . S
C107 C98 1.390 . S
C107 H100 0.950 . S
C107 C104 1.387 . S
C108 C109 1.387 . S
C108 H112 0.950 . S
C108 C117 1.390 . S
C109 C108 1.387 . S
C109 C111 1.387 . S
H110 C117 0.950 . S
C111 C109 1.387 . S
C111 C113 1.390 . S
C111 H115 0.950 . S
H112 C108 0.950 . S
C113 C111 1.390 . S
C113 C114 1.387 . S
C113 H116 0.950 . S
C114 C113 1.387 . S
C114 C117 1.387 . S
H115 C111 0.950 . S
H116 C113 0.950 . S
C117 C108 1.390 . S
C117 H110 0.950 . S
C117 C114 1.387 . S
C118 C119 1.387 . S
C118 H122 0.950 1_545 S
C118 C127 1.390 . S
C119 C118 1.387 . S
C119 C121 1.387 . S
H120 C127 0.950 1_565 S
C121 C119 1.387 . S
C121 C123 1.390 . S
C121 H125 0.950 . S
H122 C118 0.950 1_565 S
C123 C121 1.390 . S
C123 C124 1.387 . S
C123 H126 0.950 . S
C124 C123 1.387 . S
C124 C127 1.387 . S
H125 C121 0.950 . S
H126 C123 0.950 . S
C127 C118 1.390 . S
C127 H120 0.950 1_545 S
C127 C124 1.387 . S
C128 C129 1.387 . S
C128 H132 0.950 . S
C128 C137 1.390 . S
C129 C128 1.387 . S
C129 C131 1.387 . S
H130 C137 0.950 . S
C131 C129 1.387 . S
C131 C133 1.390 . S
C131 H135 0.950 . S
H132 C128 0.950 . S
C133 C131 1.390 . S
C133 C134 1.387 . S
C133 H136 0.950 . S
C134 C133 1.387 . S
C134 C137 1.387 . S
H135 C131 0.950 . S
H136 C133 0.950 . S
C137 C128 1.390 . S
C137 H130 0.950 . S
C137 C134 1.387 . S
C138 C139 1.387 . S
C138 H142 0.950 . S
C138 C147 1.390 . S
C139 C138 1.387 . S
C139 C141 1.387 . S
H140 C147 0.950 . S
C141 C139 1.387 . S
C141 C143 1.390 1_545 S
C141 H145 0.950 1_545 S
H142 C138 0.950 . S
C143 C141 1.390 1_565 S
C143 C144 1.387 1_565 S
C143 H146 0.950 . S
C144 C143 1.387 1_545 S
C144 C147 1.387 . S
H145 C141 0.950 1_565 S
H146 C143 0.950 . S
C147 C138 1.390 . S
C147 H140 0.950 . S
C147 C144 1.387 . S
C148 C149 1.387 . S
C148 H152 0.950 . S
C148 C157 1.390 1_554 S
C149 C148 1.387 . S
C149 C151 1.387 1_554 S
H150 C157 0.950 1_554 S
C151 C149 1.387 1_556 S
C151 C153 1.390 . S
C151 H155 0.950 . S
H152 C148 0.950 . S
C153 C151 1.390 . S
C153 C154 1.387 . S
C153 H156 0.950 . S
C154 C153 1.387 . S
C154 C157 1.387 . S
H155 C151 0.950 . S
H156 C153 0.950 . S
C157 C148 1.390 1_556 S
C157 H150 0.950 1_556 S
C157 C154 1.387 . S
C158 C159 1.387 . S
C158 H162 0.950 . S
C158 C167 1.390 . S
C159 C158 1.387 . S
C159 C161 1.387 . S
H160 C167 0.950 . S
C161 C159 1.387 . S
C161 C163 1.390 . S
C161 H165 0.950 . S
H162 C158 0.950 . S
C163 C161 1.390 . S
C163 C164 1.387 . S
C163 H166 0.950 . S
C164 C163 1.387 . S
C164 C167 1.387 . S
H165 C161 0.950 . S
H166 C163 0.950 . S
C167 C158 1.390 . S
C167 H160 0.950 . S
C167 C164 1.387 . S
C168 C169 1.387 . S
C168 H172 0.950 . S
C168 C177 1.390 . S
C169 C168 1.387 . S
C169 C171 1.387 1_545 S
H170 C177 0.950 . S
C171 C169 1.387 1_565 S
C171 C173 1.390 . S
C171 H175 0.950 . S
H172 C168 0.950 . S
C173 C171 1.390 . S
C173 C174 1.387 1_565 S
C173 H176 0.950 . S
C174 C173 1.387 1_545 S
C174 C177 1.387 . S
H175 C171 0.950 . S
H176 C173 0.950 . S
C177 C168 1.390 . S
C177 H170 0.950 . S
C177 C174 1.387 . S
C178 C179 1.387 . S
C178 H182 0.950 . S
C178 C187 1.390 1_554 S
C179 C178 1.387 . S
C179 C181 1.387 1_554 S
H180 C187 0.950 . S
C181 C179 1.387 1_556 S
C181 C183 1.390 . S
C181 H185 0.950 . S
H182 C178 0.950 . S
C183 C181 1.390 . S
C183 C184 1.387 . S
C183 H186 0.950 . S
C184 C183 1.387 . S
C184 C187 1.387 . S
H185 C181 0.950 . S
H186 C183 0.950 . S
C187 C178 1.390 1_556 S
C187 H180 0.950 . S
C187 C184 1.387 . S
C188 C189 1.387 . S
C188 H192 0.950 . S
C188 C197 1.390 . S
C189 C188 1.387 . S
C189 C191 1.387 . S
H190 C197 0.950 1_655 S
C191 C189 1.387 . S
C191 C193 1.390 . S
C191 H195 0.950 . S
H192 C188 0.950 . S
C193 C191 1.390 . S
C193 C194 1.387 . S
C193 H196 0.950 . S
C194 C193 1.387 . S
C194 C197 1.387 . S
H195 C191 0.950 . S
H196 C193 0.950 . S
C197 C188 1.390 . S
C197 H190 0.950 1_455 S
C197 C194 1.387 . S
C84 C44 1.395 . S
C79 C10 1.412 . S
C89 C21 1.471 . S
C94 C62 1.505 . S
C99 C31 1.413 . S
C104 C75 1.475 . S
C109 C0 1.356 . S
C114 C42 1.434 . S
C124 C53 1.491 . S
C119 C18 1.398 . S
C129 C34 1.428 . S
C134 C66 1.464 . S
C144 C55 1.418 . S
C139 C36 1.420 . S
C149 C8 1.362 . S
C154 C68 1.404 . S
C164 C49 1.463 . S
C159 C23 1.473 . S
C174 C57 1.354 . S
C169 C26 1.302 . S
C184 C70 1.409 . S
C179 C5 1.358 . S
C189 C13 1.418 . S
C194 C40 1.498 . S
