# Generated by pormake.
# Topology bcu-b, (8,8)-cn, num edge types: 1
# Building blocks:
#     Node 0, Type 0, BuildingBlock: VETTIZ_charged_sbu_0, # of connection points: 8
#     Node 1, Type 1, BuildingBlock: VETTIZ_charged_sbu_0, # of connection points: 8
#     Edge 2, Type (0, 1), BuildingBlock: OJICUG_clean_linker_0, # of connection points: 2
#     Edge 3, Type (0, 1), BuildingBlock: OJICUG_clean_linker_0, # of connection points: 2
#     Edge 4, Type (0, 1), BuildingBlock: OJICUG_clean_linker_0, # of connection points: 2
#     Edge 5, Type (0, 1), BuildingBlock: OJICUG_clean_linker_0, # of connection points: 2
#     Edge 6, Type (0, 1), BuildingBlock: OJICUG_clean_linker_0, # of connection points: 2
#     Edge 7, Type (0, 1), BuildingBlock: OJICUG_clean_linker_0, # of connection points: 2
#     Edge 8, Type (0, 1), BuildingBlock: OJICUG_clean_linker_0, # of connection points: 2
#     Edge 9, Type (0, 1), BuildingBlock: OJICUG_clean_linker_0, # of connection points: 2
# Relax obj value: 0.000
# Max RMSD: 0.009
# Mean RMSD: 0.009
data_MOF--net-bcu-b--node1-VETTIZ_charged_sbu_0--node2-VETTIZ_charged_sbu_0--edge1-OJICUG_clean_linker_0
_symmetry_space_group_name_H-M    P1
_symmetry_Int_Tables_number       1
_symmetry_cell_setting            triclinic
loop_
_symmetry_equiv_pos_as_xyz
'x, y, z'
_cell_length_a     13.730995
_cell_length_b     14.885271
_cell_length_c     15.814379
_cell_angle_alpha  92.262899
_cell_angle_beta   90.566874
_cell_angle_gamma 92.753248
loop_
_atom_site_label
_atom_site_type_symbol
_atom_site_fract_x
_atom_site_fract_y
_atom_site_fract_z
_atom_type_partial_charge
Fe0 Fe 0.13414 0.8294 0.95825 0.0
O1 O 0.12913 0.96037 0.98426 0.0
Fe2 Fe 0.06509 0.03597 0.8896 0.0
Fe3 Fe 1.05809 1.00925 0.08446 0.0
O4 O 0.12419 0.95851 0.97462 0.0
O5 O 0.99404 0.08485 -0.01021 0.0
O6 O 0.99899 0.08671 -0.00057 0.0
Fe7 Fe 0.98903 0.21581 0.0158 0.0
C8 C 0.94871 0.83546 0.06828 0.0
O9 O 0.2238 0.83962 0.06206 0.0
O10 O 0.13108 0.91648 0.15904 0.0
O11 O 0.10125 0.25226 0.93262 0.0
O12 O 0.17891 0.12609 0.91407 0.0
O13 O 0.15373 0.97659 0.79733 0.0
O14 O 0.23536 0.87056 0.87022 0.0
O15 O 0.17064 0.10347 0.11672 0.0
O16 O 0.08453 0.2264 0.116 0.0
C17 C 0.22494 0.92272 0.80688 0.0
O18 O 0.89937 0.20559 0.91199 0.0
O19 O 0.99209 0.12873 0.81501 0.0
O20 O 1.02192 0.79296 0.04143 0.0
O21 O 0.94426 0.91912 0.05998 0.0
C22 C 0.20156 0.86364 0.13861 0.0
C23 C 0.15545 0.18373 0.1432 0.0
C24 C 0.89823 0.1225 0.16718 0.0
O25 O 0.96944 0.06862 0.17672 0.0
O26 O 0.88782 0.17465 0.10384 0.0
C27 C 0.17446 0.20975 0.90578 0.0
O28 O 0.95253 0.94174 0.85733 0.0
O29 O 1.03865 0.81882 0.85805 0.0
C30 C 0.92161 0.18157 0.83544 0.0
C31 C 0.96772 0.86149 0.83086 0.0
Fe32 Fe 0.56922 0.62527 0.4634 0.0
O33 O 0.4905 0.54477 0.53827 0.0
Fe34 Fe 0.77493 0.50045 0.42956 0.0
Fe35 Fe 0.34824 0.54476 0.54449 0.0
O36 O 0.63193 0.51011 0.43119 0.0
O37 O 0.63268 0.50044 0.43578 0.0
O38 O 0.49124 0.5351 0.54286 0.0
Fe39 Fe 0.55395 0.41994 0.51065 0.0
C40 C 0.42982 0.73678 0.57463 0.0
O41 O 0.46858 0.60876 0.36528 0.0
O42 O 0.33316 0.61807 0.43984 0.0
O43 O 0.63052 0.31024 0.46091 0.0
O44 O 0.74157 0.37764 0.37031 0.0
O45 O 0.75961 0.57798 0.32783 0.0
O46 O 0.66335 0.69165 0.37562 0.0
O47 O 0.31723 0.4265 0.47227 0.0
O48 O 0.45739 0.39364 0.41221 0.0
C49 C 0.7228 0.6556 0.32086 0.0
O50 O 0.65459 0.43645 0.60877 0.0
O51 O 0.79002 0.42714 0.53421 0.0
O52 O 0.49266 0.73497 0.51315 0.0
O53 O 0.3816 0.66757 0.60374 0.0
C54 C 0.38097 0.6325 0.37331 0.0
C55 C 0.36521 0.38589 0.41487 0.0
C56 C 0.40037 0.38961 0.6532 0.0
O57 O 0.36356 0.46724 0.64622 0.0
O58 O 0.45983 0.35356 0.59843 0.0
C59 C 0.69336 0.30843 0.39942 0.0
O60 O 0.80595 0.61871 0.50179 0.0
O61 O 0.66578 0.65157 0.56184 0.0
C62 C 0.74221 0.41272 0.60074 0.0
C63 C 0.75797 0.65933 0.55919 0.0
C64 C 0.16138 0.28352 0.27321 0.0
C65 C 0.21112 0.22764 0.21587 0.0
H66 H 0.16987 0.37594 0.38022 0.0
C67 C 0.31179 0.21995 0.22724 0.0
H68 H 0.08335 0.28995 0.26711 0.0
C69 C 0.36202 0.2706 0.29246 0.0
C70 C 0.31219 0.32857 0.34825 0.0
H71 H 0.35197 0.17749 0.18425 0.0
H72 H 0.44005 0.26503 0.29867 0.0
C73 C 0.21094 0.33281 0.33853 0.0
C74 C 0.73327 0.15756 0.21757 0.0
C75 C 0.82888 0.13458 0.23666 0.0
H76 H 0.61018 0.22915 0.25934 0.0
C77 C 0.86252 0.14305 0.3208 0.0
H78 H 0.70529 0.15045 0.15322 0.0
C79 C 0.80721 0.18747 0.38185 0.0
C80 C 0.71796 0.22268 0.35908 0.0
H81 H 0.93596 0.1258 0.33706 0.0
H82 H 0.84008 0.20492 0.44328 0.0
C83 C 0.67797 0.20125 0.27862 0.0
C84 C 0.82623 0.84195 0.18569 0.0
C85 C 0.87534 0.79119 0.12327 0.0
H86 H 0.73881 0.83947 0.298 0.0
C87 C 0.85992 0.69768 0.11941 0.0
H88 H 0.83624 0.91458 0.1902 0.0
C89 C 0.80215 0.65534 0.17958 0.0
C90 C 0.76039 0.70503 0.24697 0.0
H91 H 0.89516 0.65689 0.07159 0.0
H92 H 0.7948 0.58249 0.17579 0.0
C93 C 0.76973 0.79922 0.24739 0.0
C94 C 0.34533 0.7817 0.18729 0.0
C95 C 0.25292 0.81557 0.20441 0.0
H96 H 0.45801 0.69648 0.22593 0.0
C97 C 0.20439 0.78973 0.27751 0.0
H98 H 0.38454 0.80036 0.13101 0.0
C99 C 0.24554 0.72874 0.33063 0.0
C100 C 0.33685 0.69272 0.31252 0.0
H101 H 0.13265 0.81325 0.29166 0.0
H102 H 0.20496 0.70967 0.38605 0.0
C103 C 0.38703 0.7212 0.24089 0.0
C104 C 0.38991 0.88766 0.75648 0.0
C105 C 0.2943 0.91064 0.73739 0.0
H106 H 0.513 0.81606 0.71471 0.0
C107 C 0.26066 0.90216 0.65325 0.0
H108 H 0.41789 0.89476 0.82084 0.0
C109 C 0.31597 0.85774 0.59221 0.0
C110 C 0.40522 0.82253 0.61497 0.0
H111 H 0.18721 0.91941 0.63699 0.0
H112 H 0.2831 0.84029 0.53077 0.0
C113 C 0.4452 0.84396 0.69543 0.0
C114 C 0.29694 0.20326 0.78836 0.0
C115 C 0.24784 0.25402 0.85078 0.0
H116 H 0.38436 0.20574 0.67605 0.0
C117 C 0.26325 0.34754 0.85464 0.0
H118 H 0.28694 0.13063 0.78386 0.0
C119 C 0.32103 0.38988 0.79448 0.0
C120 C 0.36279 0.34019 0.72709 0.0
H121 H 0.22802 0.38833 0.90246 0.0
H122 H 0.32837 0.46273 0.79827 0.0
C123 C 0.35345 0.246 0.72666 0.0
C124 C 0.91879 0.25549 0.69655 0.0
C125 C 0.87025 0.22964 0.76964 0.0
H126 H 0.91822 0.33554 0.58801 0.0
C127 C 0.77784 0.26351 0.78676 0.0
H128 H 0.99052 0.23197 0.68241 0.0
C129 C 0.73614 0.32401 0.73315 0.0
C130 C 0.78632 0.35249 0.66153 0.0
H131 H 0.73862 0.24485 0.84304 0.0
H132 H 0.66516 0.34873 0.74812 0.0
C133 C 0.87764 0.31647 0.64342 0.0
C134 C 0.96179 0.76171 0.70084 0.0
C135 C 0.91206 0.81757 0.75818 0.0
H136 H 0.95331 0.66929 0.59383 0.0
C137 C 0.81138 0.82525 0.74682 0.0
H138 H 1.03983 0.75528 0.70693 0.0
C139 C 0.76115 0.77461 0.68159 0.0
C140 C 0.81099 0.71664 0.6258 0.0
H141 H 0.7712 0.86771 0.78981 0.0
H142 H 0.68312 0.78017 0.67539 0.0
C143 C 0.91224 0.71241 0.63552 0.0
loop_
_geom_bond_atom_site_label_1
_geom_bond_atom_site_label_2
_geom_bond_distance
_geom_bond_site_symmetry_2
_ccdc_geom_bond_type
Fe0 O1 1.886 . S
Fe0 O4 1.715 1_554 S
Fe0 O9 2.077 . S
Fe0 O14 1.935 1_554 S
Fe0 O20 2.077 1_455 S
Fe0 O29 1.935 1_454 S
O1 Fe0 1.886 . S
O1 Fe3 1.715 1_565 S
Fe2 O4 1.886 . S
Fe2 O5 1.715 1_565 S
Fe2 O12 1.935 1_565 S
Fe2 O13 2.077 . S
Fe2 O19 1.935 1_465 S
Fe2 O28 2.077 1_455 S
Fe3 O1 1.715 1_545 S
Fe3 O6 1.886 . S
Fe3 O10 1.935 1_545 S
Fe3 O15 2.077 . S
Fe3 O21 1.935 1_445 S
Fe3 O25 2.077 1_455 S
O4 Fe0 1.715 1_556 S
O4 Fe2 1.886 . S
O5 Fe2 1.715 1_545 S
O5 Fe7 1.886 . S
O6 Fe3 1.886 . S
O6 Fe7 1.715 1_554 S
Fe7 O5 1.886 . S
Fe7 O6 1.715 1_556 S
Fe7 O11 2.077 . S
Fe7 O16 1.935 1_556 S
Fe7 O18 2.077 1_455 S
Fe7 O26 1.935 1_456 S
C8 O20 1.381 . S
C8 O21 1.421 . S
O9 Fe0 2.077 . S
O9 C22 1.381 . S
O10 Fe3 1.935 1_565 S
O10 C22 1.421 . S
O11 Fe7 2.077 . S
O11 C27 1.381 . S
O12 Fe2 1.935 1_545 S
O12 C27 1.421 . S
O13 Fe2 2.077 . S
O13 C17 1.381 . S
O14 Fe0 1.935 1_556 S
O14 C17 1.421 . S
O15 Fe3 2.077 . S
O15 C23 1.381 . S
O16 Fe7 1.935 1_554 S
O16 C23 1.421 . S
C17 O13 1.381 . S
C17 O14 1.421 . S
O18 Fe7 2.077 1_655 S
O18 C30 1.381 . S
O19 Fe2 1.935 1_645 S
O19 C30 1.421 . S
O20 Fe0 2.077 1_655 S
O20 C8 1.381 . S
O21 Fe3 1.935 1_665 S
O21 C8 1.421 . S
C22 O9 1.381 . S
C22 O10 1.421 . S
C23 O15 1.381 . S
C23 O16 1.421 . S
C24 O25 1.381 . S
C24 O26 1.421 . S
O25 Fe3 2.077 1_655 S
O25 C24 1.381 . S
O26 Fe7 1.935 1_654 S
O26 C24 1.421 . S
C27 O11 1.381 . S
C27 O12 1.421 . S
O28 Fe2 2.077 1_655 S
O28 C31 1.381 . S
O29 Fe0 1.935 1_656 S
O29 C31 1.421 . S
C30 O18 1.381 . S
C30 O19 1.421 . S
C31 O28 1.381 . S
C31 O29 1.421 . S
Fe32 O33 1.886 . S
Fe32 O36 1.715 . S
Fe32 O41 2.077 . S
Fe32 O46 1.935 . S
Fe32 O52 2.077 . S
Fe32 O61 1.935 . S
O33 Fe32 1.886 . S
O33 Fe35 1.715 . S
Fe34 O36 1.886 . S
Fe34 O37 1.715 . S
Fe34 O44 1.935 . S
Fe34 O45 2.077 . S
Fe34 O51 1.935 . S
Fe34 O60 2.077 . S
Fe35 O33 1.715 . S
Fe35 O38 1.886 . S
Fe35 O42 1.935 . S
Fe35 O47 2.077 . S
Fe35 O53 1.935 . S
Fe35 O57 2.077 . S
O36 Fe32 1.715 . S
O36 Fe34 1.886 . S
O37 Fe34 1.715 . S
O37 Fe39 1.886 . S
O38 Fe35 1.886 . S
O38 Fe39 1.715 . S
Fe39 O37 1.886 . S
Fe39 O38 1.715 . S
Fe39 O43 2.077 . S
Fe39 O48 1.935 . S
Fe39 O50 2.077 . S
Fe39 O58 1.935 . S
C40 O52 1.381 . S
C40 O53 1.421 . S
O41 Fe32 2.077 . S
O41 C54 1.381 . S
O42 Fe35 1.935 . S
O42 C54 1.421 . S
O43 Fe39 2.077 . S
O43 C59 1.381 . S
O44 Fe34 1.935 . S
O44 C59 1.421 . S
O45 Fe34 2.077 . S
O45 C49 1.381 . S
O46 Fe32 1.935 . S
O46 C49 1.421 . S
O47 Fe35 2.077 . S
O47 C55 1.381 . S
O48 Fe39 1.935 . S
O48 C55 1.421 . S
C49 O45 1.381 . S
C49 O46 1.421 . S
O50 Fe39 2.077 . S
O50 C62 1.381 . S
O51 Fe34 1.935 . S
O51 C62 1.421 . S
O52 Fe32 2.077 . S
O52 C40 1.381 . S
O53 Fe35 1.935 . S
O53 C40 1.421 . S
C54 O41 1.381 . S
C54 O42 1.421 . S
C55 O47 1.381 . S
C55 O48 1.421 . S
C56 O57 1.381 . S
C56 O58 1.421 . S
O57 Fe35 2.077 . S
O57 C56 1.381 . S
O58 Fe39 1.935 . S
O58 C56 1.421 . S
C59 O43 1.381 . S
C59 O44 1.421 . S
O60 Fe34 2.077 . S
O60 C63 1.381 . S
O61 Fe32 1.935 . S
O61 C63 1.421 . S
C62 O50 1.381 . S
C62 O51 1.421 . S
C63 O60 1.381 . S
C63 O61 1.421 . S
C64 C65 1.387 . S
C64 H68 0.950 . S
C64 C73 1.390 . S
C65 C64 1.387 . S
C65 C67 1.387 . S
H66 C73 0.950 . S
C67 C65 1.387 . S
C67 C69 1.390 . S
C67 H71 0.950 . S
H68 C64 0.950 . S
C69 C67 1.390 . S
C69 C70 1.387 . S
C69 H72 0.950 . S
C70 C69 1.387 . S
C70 C73 1.387 . S
H71 C67 0.950 . S
H72 C69 0.950 . S
C73 C64 1.390 . S
C73 H66 0.950 . S
C73 C70 1.387 . S
C74 C75 1.387 . S
C74 H78 0.950 . S
C74 C83 1.390 . S
C75 C74 1.387 . S
C75 C77 1.387 . S
H76 C83 0.950 . S
C77 C75 1.387 . S
C77 C79 1.390 . S
C77 H81 0.950 . S
H78 C74 0.950 . S
C79 C77 1.390 . S
C79 C80 1.387 . S
C79 H82 0.950 . S
C80 C79 1.387 . S
C80 C83 1.387 . S
H81 C77 0.950 . S
H82 C79 0.950 . S
C83 C74 1.390 . S
C83 H76 0.950 . S
C83 C80 1.387 . S
C84 C85 1.387 . S
C84 H88 0.950 . S
C84 C93 1.390 . S
C85 C84 1.387 . S
C85 C87 1.387 . S
H86 C93 0.950 . S
C87 C85 1.387 . S
C87 C89 1.390 . S
C87 H91 0.950 . S
H88 C84 0.950 . S
C89 C87 1.390 . S
C89 C90 1.387 . S
C89 H92 0.950 . S
C90 C89 1.387 . S
C90 C93 1.387 . S
H91 C87 0.950 . S
H92 C89 0.950 . S
C93 C84 1.390 . S
C93 H86 0.950 . S
C93 C90 1.387 . S
C94 C95 1.387 . S
C94 H98 0.950 . S
C94 C103 1.390 . S
C95 C94 1.387 . S
C95 C97 1.387 . S
H96 C103 0.950 . S
C97 C95 1.387 . S
C97 C99 1.390 . S
C97 H101 0.950 . S
H98 C94 0.950 . S
C99 C97 1.390 . S
C99 C100 1.387 . S
C99 H102 0.950 . S
C100 C99 1.387 . S
C100 C103 1.387 . S
H101 C97 0.950 . S
H102 C99 0.950 . S
C103 C94 1.390 . S
C103 H96 0.950 . S
C103 C100 1.387 . S
C104 C105 1.387 . S
C104 H108 0.950 . S
C104 C113 1.390 . S
C105 C104 1.387 . S
C105 C107 1.387 . S
H106 C113 0.950 . S
C107 C105 1.387 . S
C107 C109 1.390 . S
C107 H111 0.950 . S
H108 C104 0.950 . S
C109 C107 1.390 . S
C109 C110 1.387 . S
C109 H112 0.950 . S
C110 C109 1.387 . S
C110 C113 1.387 . S
H111 C107 0.950 . S
H112 C109 0.950 . S
C113 C104 1.390 . S
C113 H106 0.950 . S
C113 C110 1.387 . S
C114 C115 1.387 . S
C114 H118 0.950 . S
C114 C123 1.390 . S
C115 C114 1.387 . S
C115 C117 1.387 . S
H116 C123 0.950 . S
C117 C115 1.387 . S
C117 C119 1.390 . S
C117 H121 0.950 . S
H118 C114 0.950 . S
C119 C117 1.390 . S
C119 C120 1.387 . S
C119 H122 0.950 . S
C120 C119 1.387 . S
C120 C123 1.387 . S
H121 C117 0.950 . S
H122 C119 0.950 . S
C123 C114 1.390 . S
C123 H116 0.950 . S
C123 C120 1.387 . S
C124 C125 1.387 . S
C124 H128 0.950 . S
C124 C133 1.390 . S
C125 C124 1.387 . S
C125 C127 1.387 . S
H126 C133 0.950 . S
C127 C125 1.387 . S
C127 C129 1.390 . S
C127 H131 0.950 . S
H128 C124 0.950 . S
C129 C127 1.390 . S
C129 C130 1.387 . S
C129 H132 0.950 . S
C130 C129 1.387 . S
C130 C133 1.387 . S
H131 C127 0.950 . S
H132 C129 0.950 . S
C133 C124 1.390 . S
C133 H126 0.950 . S
C133 C130 1.387 . S
C134 C135 1.387 . S
C134 H138 0.950 . S
C134 C143 1.390 . S
C135 C134 1.387 . S
C135 C137 1.387 . S
H136 C143 0.950 . S
C137 C135 1.387 . S
C137 C139 1.390 . S
C137 H141 0.950 . S
H138 C134 0.950 . S
C139 C137 1.390 . S
C139 C140 1.387 . S
C139 H142 0.950 . S
C140 C139 1.387 . S
C140 C143 1.387 . S
H141 C137 0.950 . S
H142 C139 0.950 . S
C143 C134 1.390 . S
C143 H136 0.950 . S
C143 C140 1.387 . S
C65 C23 1.451 . S
C70 C55 1.448 . S
C75 C24 1.450 . S
C80 C59 1.452 . S
C85 C8 1.450 . S
C90 C49 1.453 . S
C95 C22 1.453 . S
C100 C54 1.450 . S
C105 C17 1.453 . S
C110 C40 1.452 . S
C120 C56 1.450 . S
C115 C27 1.452 . S
C125 C30 1.451 . S
C130 C62 1.454 . S
C140 C63 1.452 . S
C135 C31 1.456 . S
