# Generated by pormake.
# Topology pth, (4,4)-cn, num edge types: 1
# Building blocks:
#     Node 0, Type 0, BuildingBlock: QUQFOY_clean_sbu_1, # of connection points: 4
#     Node 1, Type 0, BuildingBlock: QUQFOY_clean_sbu_1, # of connection points: 4
#     Node 2, Type 0, BuildingBlock: QUQFOY_clean_sbu_1, # of connection points: 4
#     Node 3, Type 1, BuildingBlock: MUDLON_clean_sbu_0, # of connection points: 4
#     Node 4, Type 1, BuildingBlock: MUDLON_clean_sbu_0, # of connection points: 4
#     Node 5, Type 1, BuildingBlock: MUDLON_clean_sbu_0, # of connection points: 4
#     Edge 6, Type (0, 1), None
#     Edge 7, Type (0, 1), None
#     Edge 8, Type (0, 1), None
#     Edge 9, Type (0, 1), None
#     Edge 10, Type (0, 1), None
#     Edge 11, Type (0, 1), None
#     Edge 12, Type (0, 1), None
#     Edge 13, Type (0, 1), None
#     Edge 14, Type (0, 1), None
#     Edge 15, Type (0, 1), None
#     Edge 16, Type (0, 1), None
#     Edge 17, Type (0, 1), None
# Relax obj value: 0.049
# Max RMSD: 0.137
# Mean RMSD: 0.075
data_MOF--net-pth--node1-QUQFOY_clean_sbu_1--node2-MUDLON_clean_sbu_0--edge1-none
_symmetry_space_group_name_H-M    P1
_symmetry_Int_Tables_number       1
_symmetry_cell_setting            triclinic
loop_
_symmetry_equiv_pos_as_xyz
'x, y, z'
_cell_length_a     10.774722
_cell_length_b     10.419935
_cell_length_c     27.434432
_cell_angle_alpha  90.252241
_cell_angle_beta   90.232825
_cell_angle_gamma 119.79235
loop_
_atom_site_label
_atom_site_type_symbol
_atom_site_fract_x
_atom_site_fract_y
_atom_site_fract_z
_atom_type_partial_charge
O0 O 0.16931 0.29863 0.03929 0.0
Cd1 Cd 0.96935 0.1899 0.07145 0.0
Cd2 Cd 0.07181 1.00159 0.09164 0.0
O3 O 0.25331 0.14816 0.05561 0.0
O4 O 0.90863 0.33928 0.08477 0.0
O5 O 0.94026 0.2101 0.14262 0.0
C6 C 0.90706 0.30894 0.13037 0.0
C7 C 0.09377 0.91663 0.16772 0.0
C8 C 0.26724 0.26435 1.03597 0.0
C9 C 0.8032 0.89602 1.02748 0.0
O10 O 0.89301 0.86922 0.04892 0.0
O11 O 0.81112 1.02109 1.03152 0.0
O12 O 0.12245 0.86858 0.12839 0.0
O13 O 0.05409 1.01455 0.16394 0.0
O14 O 0.85004 0.11805 0.48407 0.0
Cd15 Cd 0.03381 0.17911 0.44385 0.0
Cd16 Cd 0.92494 0.87782 0.44987 0.0
O17 O 0.76381 0.87669 0.49005 0.0
O18 O 0.08893 0.36599 0.4078 0.0
O19 O 0.01914 0.14941 0.37166 0.0
C20 C 0.06129 0.28881 0.36822 0.0
C21 C 0.86313 0.69523 0.39006 0.0
C22 C 0.75594 0.99159 0.49961 0.0
C23 C 0.22246 0.09396 0.49339 0.0
O24 O 0.12414 0.96249 0.48343 0.0
O25 O 0.21051 0.20426 0.48091 0.0
O26 O 0.86156 0.66556 0.43566 0.0
O27 O 0.89789 0.82869 0.37816 0.0
O28 O 0.78308 0.99555 0.71079 0.0
Cd29 Cd 0.89853 0.91059 0.74579 0.0
Cd30 Cd 0.08827 0.22416 0.74392 0.0
O31 O 0.92937 0.23752 0.70693 0.0
O32 O 0.75245 0.69739 0.75621 0.0
O33 O 0.8669 0.85223 0.81689 0.0
C34 C 0.77295 0.72103 0.80241 0.0
C35 C 0.17571 0.34971 0.81719 0.0
C36 C 0.80969 0.12401 0.69763 0.0
C37 C 0.17504 1.01637 0.69406 0.0
O38 O 0.2041 0.14711 0.7057 0.0
O39 O 0.05854 0.90442 0.70677 0.0
O40 O 0.21963 0.4186 0.77637 0.0
O41 O 0.08117 0.21047 0.81614 0.0
Mg42 Mg 0.99015 0.55482 0.26398 0.0
C43 C 0.05859 0.35298 0.32104 0.0
O44 O 0.98605 0.26353 0.28497 0.0
C45 C 0.08553 0.84557 0.21454 0.0
O46 O 0.01157 0.86036 0.24978 0.0
C47 C 0.88753 0.399 0.16752 0.0
O48 O 0.90191 0.52706 0.15496 0.0
O49 O 0.89319 0.37181 0.21231 0.0
O50 O 0.09507 0.48929 0.31853 0.0
O51 O 0.86729 0.62405 0.30851 0.0
C52 C 0.84796 0.58621 0.353 0.0
O53 O 0.8584 0.47145 0.36675 0.0
O54 O 0.11468 0.74126 0.21626 0.0
Mg55 Mg 0.55206 0.18447 0.59463 0.0
C56 C 0.34386 0.11344 0.52327 0.0
O57 O 0.34519 0.994 0.53758 0.0
C58 C 0.70235 0.13486 0.66761 0.0
O59 O 0.58455 1.01169 0.65654 0.0
C60 C 0.27396 0.99842 0.66186 0.0
O61 O 0.24121 0.86924 0.64301 0.0
O62 O 0.38324 0.1151 0.64765 0.0
O63 O 0.43767 0.23865 0.54072 0.0
O64 O 0.64844 0.10305 0.54318 0.0
C65 C 0.64476 0.983 0.53238 0.0
O66 O 0.55751 0.86012 0.555 0.0
O67 O 0.72587 0.25452 0.64697 0.0
Mg68 Mg 0.50456 0.60816 0.92285 0.0
C69 C 0.24502 0.42076 0.86347 0.0
O70 O 0.22653 0.335 0.90077 0.0
C71 C 0.69572 0.78179 0.9955 0.0
O72 O 0.69381 0.65507 0.99195 0.0
C73 C 0.39024 0.35408 1.00483 0.0
O74 O 0.49398 0.32386 0.99917 0.0
O75 O 0.38465 0.45175 0.97918 0.0
O76 O 0.34551 0.55535 0.86493 0.0
O77 O 0.69062 0.63936 0.88226 0.0
C78 C 0.67549 0.60876 0.83697 0.0
O79 O 0.55079 0.50529 0.82056 0.0
O80 O 0.6135 0.80498 0.96779 0.0
loop_
_geom_bond_atom_site_label_1
_geom_bond_atom_site_label_2
_geom_bond_distance
_geom_bond_site_symmetry_2
_ccdc_geom_bond_type
O0 Cd1 2.223 1_456 S
O0 C8 1.315 . S
Cd1 O0 2.223 1_654 S
Cd1 O4 2.297 . S
Cd1 O5 2.439 . S
Cd1 O11 2.240 1_545 S
Cd2 O3 2.240 1_565 S
Cd2 O10 2.223 1_454 S
Cd2 O12 2.297 . S
Cd2 O13 2.439 . S
O3 Cd2 2.240 1_545 S
O3 C8 1.279 1_554 S
O4 Cd1 2.297 . S
O4 C6 1.247 . S
O5 Cd1 2.439 . S
O5 C6 1.208 . S
C6 O4 1.247 . S
C6 O5 1.208 . S
C7 O12 1.247 . S
C7 O13 1.208 . S
C8 O0 1.315 . S
C8 O3 1.279 1_556 S
C9 O10 1.315 . S
C9 O11 1.279 1_556 S
O10 Cd2 2.223 1_656 S
O10 C9 1.315 . S
O11 Cd1 2.240 1_565 S
O11 C9 1.279 1_554 S
O12 Cd2 2.297 . S
O12 C7 1.247 . S
O13 Cd2 2.439 . S
O13 C7 1.208 . S
O14 Cd15 2.223 1_655 S
O14 C22 1.315 . S
Cd15 O14 2.223 1_455 S
Cd15 O18 2.297 . S
Cd15 O19 2.439 . S
Cd15 O25 2.240 . S
Cd16 O17 2.240 . S
Cd16 O24 2.223 1_655 S
Cd16 O26 2.297 . S
Cd16 O27 2.439 . S
O17 Cd16 2.240 . S
O17 C22 1.279 1_565 S
O18 Cd15 2.297 . S
O18 C20 1.247 . S
O19 Cd15 2.439 . S
O19 C20 1.208 . S
C20 O18 1.247 . S
C20 O19 1.208 . S
C21 O26 1.247 . S
C21 O27 1.208 . S
C22 O14 1.315 . S
C22 O17 1.279 1_545 S
C23 O24 1.315 . S
C23 O25 1.279 1_565 S
O24 Cd16 2.223 1_455 S
O24 C23 1.315 . S
O25 Cd15 2.240 . S
O25 C23 1.279 1_545 S
O26 Cd16 2.297 . S
O26 C21 1.247 . S
O27 Cd16 2.439 . S
O27 C21 1.208 . S
O28 Cd29 2.223 . S
O28 C36 1.315 . S
Cd29 O28 2.223 . S
Cd29 O32 2.297 . S
Cd29 O33 2.439 . S
Cd29 O39 2.240 1_655 S
Cd30 O31 2.240 1_455 S
Cd30 O38 2.223 . S
Cd30 O40 2.297 . S
Cd30 O41 2.439 . S
O31 Cd30 2.240 1_655 S
O31 C36 1.279 1_545 S
O32 Cd29 2.297 . S
O32 C34 1.247 . S
O33 Cd29 2.439 . S
O33 C34 1.208 . S
C34 O32 1.247 . S
C34 O33 1.208 . S
C35 O40 1.247 . S
C35 O41 1.208 . S
C36 O28 1.315 . S
C36 O31 1.279 1_565 S
C37 O38 1.315 . S
C37 O39 1.279 1_545 S
O38 Cd30 2.223 . S
O38 C37 1.315 . S
O39 Cd29 2.240 1_455 S
O39 C37 1.279 1_565 S
O40 Cd30 2.297 . S
O40 C35 1.247 . S
O41 Cd30 2.439 . S
O41 C35 1.208 . S
Mg42 O49 2.141 . S
Mg42 O50 2.048 . S
Mg42 O51 2.048 . S
Mg42 O54 2.141 . S
C43 O44 1.313 . S
C43 O50 1.195 1_655 S
O44 C43 1.313 . S
C45 O46 1.245 . S
C45 O54 1.289 1_655 S
O46 C45 1.245 . S
C47 O48 1.245 . S
C47 O49 1.289 1_655 S
O48 C47 1.245 . S
O49 Mg42 2.141 . S
O49 C47 1.289 1_455 S
O50 Mg42 2.048 . S
O50 C43 1.195 1_455 S
O51 Mg42 2.048 . S
O51 C52 1.195 1_455 S
C52 O51 1.195 1_655 S
C52 O53 1.313 . S
O53 C52 1.313 . S
O54 Mg42 2.141 . S
O54 C45 1.289 1_455 S
Mg55 O62 2.141 . S
Mg55 O63 2.048 . S
Mg55 O64 2.048 . S
Mg55 O67 2.141 . S
C56 O57 1.313 . S
C56 O63 1.195 1_565 S
O57 C56 1.313 . S
C58 O59 1.245 . S
C58 O67 1.289 1_565 S
O59 C58 1.245 . S
C60 O61 1.245 . S
C60 O62 1.289 1_565 S
O61 C60 1.245 . S
O62 Mg55 2.141 . S
O62 C60 1.289 1_545 S
O63 Mg55 2.048 . S
O63 C56 1.195 1_545 S
O64 Mg55 2.048 . S
O64 C65 1.195 1_545 S
C65 O64 1.195 1_565 S
C65 O66 1.313 . S
O66 C65 1.313 . S
O67 Mg55 2.141 . S
O67 C58 1.289 1_545 S
Mg68 O75 2.141 . S
Mg68 O76 2.048 . S
Mg68 O77 2.048 . S
Mg68 O80 2.141 . S
C69 O70 1.313 . S
C69 O76 1.195 . S
O70 C69 1.313 . S
C71 O72 1.245 . S
C71 O80 1.289 . S
O72 C71 1.245 . S
C73 O74 1.245 . S
C73 O75 1.289 . S
O74 C73 1.245 . S
O75 Mg68 2.141 . S
O75 C73 1.289 . S
O76 Mg68 2.048 . S
O76 C69 1.195 . S
O77 Mg68 2.048 . S
O77 C78 1.195 . S
C78 O77 1.195 . S
C78 O79 1.313 . S
O79 C78 1.313 . S
O80 Mg68 2.141 . S
O80 C71 1.289 . S
C47 C6 1.476 . S
C22 C65 1.643 1_545 S
C34 C78 1.423 . S
C7 C45 1.532 1_455 S
C56 C23 1.585 . S
C35 C69 1.397 . S
C58 C36 1.505 . S
C9 C71 1.767 . S
C52 C21 1.520 . S
C60 C37 1.613 1_565 S
C73 C8 1.809 . S
C20 C43 1.530 1_455 S
