# Generated by pormake.
# Topology pts, (4,4)-cn, num edge types: 1
# Building blocks:
#     Node 0, Type 0, BuildingBlock: ESEHIV_clean_sbu_0, # of connection points: 4
#     Node 1, Type 0, BuildingBlock: ESEHIV_clean_sbu_0, # of connection points: 4
#     Node 2, Type 1, BuildingBlock: AZAVOO_clean_sbu_0, # of connection points: 4
#     Node 3, Type 1, BuildingBlock: AZAVOO_clean_sbu_0, # of connection points: 4
#     Edge 4, Type (0, 1), BuildingBlock: XIVTED_clean_linker_0, # of connection points: 2
#     Edge 5, Type (0, 1), BuildingBlock: XIVTED_clean_linker_0, # of connection points: 2
#     Edge 6, Type (0, 1), BuildingBlock: XIVTED_clean_linker_0, # of connection points: 2
#     Edge 7, Type (0, 1), BuildingBlock: XIVTED_clean_linker_0, # of connection points: 2
#     Edge 8, Type (0, 1), BuildingBlock: XIVTED_clean_linker_0, # of connection points: 2
#     Edge 9, Type (0, 1), BuildingBlock: XIVTED_clean_linker_0, # of connection points: 2
#     Edge 10, Type (0, 1), BuildingBlock: XIVTED_clean_linker_0, # of connection points: 2
#     Edge 11, Type (0, 1), BuildingBlock: XIVTED_clean_linker_0, # of connection points: 2
# Relax obj value: 0.001
# Max RMSD: 0.095
# Mean RMSD: 0.062
data_MOF--net-pts--node1-ESEHIV_clean_sbu_0--node2-AZAVOO_clean_sbu_0--edge1-XIVTED_clean_linker_0
_symmetry_space_group_name_H-M    P1
_symmetry_Int_Tables_number       1
_symmetry_cell_setting            triclinic
loop_
_symmetry_equiv_pos_as_xyz
'x, y, z'
_cell_length_a     24.084651
_cell_length_b     25.747652
_cell_length_c     37.202812
_cell_angle_alpha  93.566771
_cell_angle_beta   100.30383
_cell_angle_gamma 89.707817
loop_
_atom_site_label
_atom_site_type_symbol
_atom_site_fract_x
_atom_site_fract_y
_atom_site_fract_z
_atom_type_partial_charge
Cu0 Cu 0.58365 0.0888 0.02458 0.0
N1 N 0.62268 0.13558 1.00182 0.0
N2 N 0.68641 0.16315 0.97018 0.0
C3 C 0.66845 0.12315 0.98704 0.0
C4 C 0.65031 0.20241 0.97461 0.0
C5 C 0.61107 0.18529 0.99425 0.0
O6 O 0.64216 0.04735 0.05219 0.0
C7 C 0.49904 0.01393 0.99018 0.0
O8 O 0.50107 0.99633 0.02279 0.0
H9 H 0.68683 0.08469 0.9875 0.0
H10 H 0.57596 0.2071 1.00181 0.0
N11 N 0.54154 0.12342 0.05653 0.0
N12 N 0.47389 0.1367 0.0904 0.0
C13 C 0.48872 0.11136 0.06064 0.0
C14 C 0.56053 0.15858 0.0842 0.0
C15 C 0.51895 0.16694 0.10508 0.0
C16 C 0.64003 0.03094 0.08346 0.0
O17 O 0.59269 0.0351 0.09628 0.0
H18 H 0.46233 0.08318 0.04284 0.0
H19 H 0.60285 0.17461 0.09004 0.0
O20 O 0.53277 0.04995 0.98585 0.0
H21 H 0.6518 0.24059 0.96419 0.0
H22 H 0.52314 0.19087 0.13039 0.0
Cu23 Cu 0.10694 0.54751 0.54507 0.0
N24 N 0.14823 0.51257 0.58342 0.0
N25 N 0.16747 0.44996 0.62262 0.0
C26 C 0.14048 0.46233 0.58931 0.0
C27 C 0.19359 0.4941 0.63829 0.0
C28 C 0.18179 0.53273 0.61391 0.0
O29 O 0.07364 0.49582 0.50695 0.0
C30 C 0.03933 0.5912 0.59531 0.0
O31 O 0.05385 0.5507 0.6146 0.0
H32 H 0.11228 0.43635 0.57056 0.0
H33 H 0.19388 0.5733 0.6189 0.0
N34 N 0.15194 0.59228 0.52493 0.0
N35 N 0.17187 0.65543 0.49064 0.0
C36 C 0.13094 0.62947 0.50262 0.0
C37 C 0.20833 0.59475 0.52748 0.0
C38 C 0.22077 0.63364 0.50609 0.0
C39 C 0.10643 0.47561 0.48666 0.0
O40 O 0.15931 0.49105 0.49226 0.0
H41 H 0.0862 0.63657 0.49477 0.0
H42 H 0.23809 0.5697 0.54337 0.0
O43 O 0.05259 0.59289 0.56377 0.0
H44 H 0.21789 0.49849 0.66576 0.0
H45 H 0.26245 0.6453 0.5025 0.0
Mg46 Mg 0.12486 0.04419 0.30283 0.0
O47 O 0.03729 0.02521 0.26668 0.0
O48 O 0.9802 0.00868 0.30593 0.0
Mg49 Mg 0.02815 0.01404 0.36472 0.0
C50 C 0.98869 0.01332 0.27336 0.0
C51 C 0.1739 0.04704 0.2303 0.0
O52 O 0.16134 0.99735 0.22962 0.0
O53 O 0.09284 0.12377 0.32121 0.0
O54 O 0.03955 0.10209 0.3615 0.0
O55 O 0.1508 0.9599 0.3026 0.0
O56 O 0.10609 -0.00162 0.34346 0.0
C57 C 0.06204 0.13629 0.34504 0.0
C58 C 0.12805 0.95671 0.33138 0.0
O59 O 0.16051 0.07753 0.25559 0.0
Mg60 Mg 0.03197 0.02709 0.75993 0.0
O61 O 0.11876 0.00671 0.79383 0.0
O62 O 0.17239 0.9781 0.75355 0.0
Mg63 Mg 0.12085 0.97613 0.6955 0.0
C64 C 0.16572 0.98977 0.78638 0.0
C65 C 0.96263 0.10092 0.80299 0.0
O66 O 0.94429 0.11196 0.7689 0.0
O67 O 0.07043 0.10112 0.74189 0.0
O68 O 0.11787 0.06516 0.70024 0.0
O69 O 1.00041 0.94475 0.76049 0.0
O70 O 0.04328 0.97313 0.71791 0.0
C71 C 0.10067 0.10513 0.71712 0.0
C72 C 1.02023 0.93512 0.73066 0.0
O73 O 1.00323 0.06906 0.80957 0.0
H74 H 0.40564 0.05079 0.07869 0.0
H75 H 0.22304 0.1435 0.23071 0.0
H76 H 0.42868 0.20018 0.13906 0.0
H77 H 0.20831 0.99219 0.1729 0.0
H78 H 0.29142 0.16881 0.1934 0.0
H79 H 0.32674 0.03291 0.10868 0.0
C80 C 0.39386 0.08031 0.09785 0.0
C81 C 0.42444 0.1272 0.10627 0.0
C82 C 0.27285 0.13023 0.18869 0.0
C83 C 0.33376 0.10622 0.14149 0.0
C84 C 0.2336 0.11579 0.2099 0.0
C85 C 0.21006 0.06545 0.20516 0.0
C86 C 0.28868 0.09414 0.16248 0.0
C87 C 0.2255 0.03127 0.17775 0.0
C88 C 0.34877 0.06979 0.11525 0.0
C89 C 0.40709 0.16325 0.13199 0.0
N90 N 0.26396 0.04612 0.15768 0.0
N91 N 0.36315 0.15192 0.14877 0.0
H92 H 0.16158 0.43486 0.69356 0.0
H93 H 0.14979 0.12589 0.65902 0.0
H94 H 0.16271 0.35406 0.58871 0.0
H95 H 0.0844 0.20297 0.74906 0.0
H96 H 0.16996 0.21003 0.63826 0.0
H97 H 0.14799 0.35102 0.71932 0.0
C98 C 0.15964 0.39941 0.67613 0.0
C99 C 0.16326 0.40121 0.63895 0.0
C100 C 0.15128 0.20867 0.6626 0.0
C101 C 0.14784 0.30577 0.66808 0.0
C102 C 0.13985 0.16049 0.67467 0.0
C103 C 0.11498 0.15707 0.70587 0.0
C104 C 0.13836 0.2543 0.68188 0.0
C105 C 0.10328 0.20368 0.72479 0.0
C106 C 0.15142 0.35179 0.69073 0.0
C107 C 0.15972 0.35434 0.6174 0.0
N108 N 0.11512 0.2505 0.7125 0.0
N109 N 0.15242 0.3086 0.63228 0.0
H110 H 0.74883 0.03552 0.07074 0.0
H111 H 0.88307 0.97819 0.277 0.0
H112 H 0.65212 0.99452 0.15206 0.0
H113 H 0.98137 0.03273 0.20037 0.0
H114 H 0.80024 0.97347 0.22881 0.0
H115 H 0.83575 0.02371 0.11481 0.0
C116 C 0.74579 0.02325 0.09766 0.0
C117 C 0.69289 0.01639 0.10777 0.0
C118 C 0.8399 0.98622 0.22237 0.0
C119 C 0.79245 0.00321 0.15844 0.0
C120 C 0.88746 0.98899 0.24997 0.0
C121 C 0.93947 0.00646 0.24297 0.0
C122 C 0.84384 0.00115 0.18728 0.0
C123 C 0.94222 0.0193 0.20715 0.0
C124 C 0.79552 0.01678 0.12286 0.0
C125 C 0.69178 0.00058 0.14306 0.0
N126 N 0.89496 0.01678 0.18071 0.0
N127 N 0.74071 0.99491 0.16713 0.0
H128 H 1.01574 0.68513 0.5656 0.0
H129 H 0.99426 0.84122 0.75567 0.0
H130 H 1.02189 0.60833 0.66618 0.0
H131 H 0.03687 0.91035 0.66132 0.0
H132 H 0.98799 0.75572 0.72168 0.0
H133 H 1.00381 0.76816 0.59837 0.0
C134 C 1.01363 0.68551 0.59446 0.0
C135 C 1.02061 0.63961 0.61322 0.0
C136 C 0.99861 0.78975 0.70853 0.0
C137 C 1.00762 0.73503 0.65108 0.0
C138 C 1.00227 0.83843 0.72788 0.0
C139 C 1.0167 0.88287 0.71143 0.0
C140 C 1.00857 0.78583 0.67236 0.0
C141 C 0.02634 0.87712 0.6753 0.0
C142 C 1.00721 0.73309 0.61323 0.0
C143 C 1.01714 0.64274 0.65063 0.0
N144 N 1.02202 0.82963 0.65703 0.0
N145 N 1.01146 0.68975 0.66846 0.0
H146 H 0.39509 0.97489 0.99506 0.0
H147 H 0.27661 0.97786 0.78022 0.0
H148 H 0.49455 0.02158 0.91682 0.0
H149 H 0.16798 0.99251 0.86087 0.0
H150 H 0.35832 0.97594 0.82945 0.0
H151 H 0.31325 0.96292 0.94536 0.0
C152 C 0.40001 0.98166 0.96735 0.0
C153 C 0.4517 -0.00067 0.96004 0.0
C154 C 0.31658 0.97932 0.83636 0.0
C155 C 0.35841 0.98583 0.90327 0.0
C156 C 0.26977 0.98025 0.80827 0.0
C157 C 0.21513 0.98568 0.81634 0.0
C158 C 0.309 0.98318 0.87294 0.0
C159 C 0.20925 0.98867 0.85333 0.0
C160 C 0.35319 0.97527 0.93911 0.0
C161 C 0.45547 0.0081 0.92369 0.0
N162 N 0.25562 0.98737 0.88028 0.0
N163 N 0.40949 0.00127 0.8967 0.0
H164 H 1.01345 0.41152 0.4801 0.0
H165 H 0.11928 0.2209 0.32802 0.0
H166 H 0.158 0.44119 0.43044 0.0
H167 H 0.99276 0.17849 0.38999 0.0
H168 H 0.12033 0.30924 0.35627 0.0
H169 H 0.99235 0.3334 0.43861 0.0
C170 C 0.04018 0.40207 0.46013 0.0
C171 C 0.08795 0.43246 0.45903 0.0
C172 C 0.09186 0.28072 0.36336 0.0
C173 C 0.06425 0.34344 0.41166 0.0
C174 C 0.09106 0.23027 0.3471 0.0
C175 C 0.05656 0.19185 0.35704 0.0
C176 C 0.0579 0.29293 0.38975 0.0
C177 C 1.02071 0.20655 0.38186 0.0
C178 C 0.02828 0.35743 0.43656 0.0
C179 C 0.12119 0.41845 0.43261 0.0
N180 N 1.02276 0.25571 0.39763 0.0
N181 N 0.10896 0.37484 0.4102 0.0
H182 H 0.69632 0.22024 0.91246 0.0
H183 H 0.97423 0.07034 0.87347 0.0
H184 H 0.78054 0.10337 0.9804 0.0
H185 H 0.87687 0.1717 0.7983 0.0
H186 H 0.91186 0.09175 0.91744 0.0
H187 H 0.76997 0.21248 0.87493 0.0
C188 C 0.7306 0.1934 0.91978 0.0
C189 C 0.73182 0.16204 0.94947 0.0
C190 C 0.90447 0.10967 0.89145 0.0
C191 C 0.81625 0.15264 0.90638 0.0
C192 C 0.94027 0.09765 0.86638 0.0
C193 C 0.93053 0.11886 0.83195 0.0
C194 C 0.85866 0.14327 0.88211 0.0
C195 C 0.88577 0.15404 0.82436 0.0
C196 C 0.77253 0.18875 0.89819 0.0
C197 C 0.77722 0.1276 0.9574 0.0
N198 N 0.85134 0.16483 0.84908 0.0
N199 N 0.8174 0.12367 0.93592 0.0
H200 H 0.08888 0.72723 0.48495 0.0
H201 H 0.18819 0.8678 0.32102 0.0
H202 H 0.23665 0.67982 0.44114 0.0
H203 H 0.07334 0.93544 0.3873 0.0
H204 H 0.19809 0.79202 0.35853 0.0
H205 H 0.0746 0.79751 0.44327 0.0
C206 C 0.11818 0.73145 0.46638 0.0
C207 C 0.16402 0.69758 0.46651 0.0
C208 C 0.17045 0.8234 0.3646 0.0
C209 C 0.14799 0.77822 0.41863 0.0
C210 C 0.16445 0.86648 0.34307 0.0
C211 C 0.12978 0.90815 0.35095 0.0
C212 C 0.14111 0.82182 0.39394 0.0
C213 C 0.1004 0.90443 0.38005 0.0
C214 C 0.11018 0.77177 0.4427 0.0
C215 C 0.20113 0.7054 0.44217 0.0
N216 N 0.10675 0.86215 0.40043 0.0
N217 N 0.19222 0.74484 0.41908 0.0
loop_
_geom_bond_atom_site_label_1
_geom_bond_atom_site_label_2
_geom_bond_distance
_geom_bond_site_symmetry_2
_ccdc_geom_bond_type
Cu0 N1 1.999 1_554 S
Cu0 O6 1.974 . S
Cu0 N11 1.985 . S
Cu0 O20 1.959 1_554 S
N1 Cu0 1.999 1_556 S
N1 C3 1.263 . S
N1 C5 1.389 . S
N2 C3 1.358 . S
N2 C4 1.400 . S
C3 N1 1.263 . S
C3 N2 1.358 . S
C3 H9 0.930 . S
C4 N2 1.400 . S
C4 C5 1.351 . S
C4 H21 0.930 . S
C5 N1 1.389 . S
C5 C4 1.351 . S
C5 H10 0.930 . S
O6 Cu0 1.974 . S
O6 C16 1.282 . S
C7 O8 1.261 1_545 S
C7 O20 1.251 . S
O8 C7 1.261 1_565 S
H9 C3 0.930 . S
H10 C5 0.930 . S
N11 Cu0 1.985 . S
N11 C13 1.335 . S
N11 C14 1.390 . S
N12 C13 1.345 . S
N12 C15 1.336 . S
C13 N11 1.335 . S
C13 N12 1.345 . S
C13 H18 0.930 . S
C14 N11 1.390 . S
C14 C15 1.346 . S
C14 H19 0.930 . S
C15 N12 1.336 . S
C15 C14 1.346 . S
C15 H22 0.929 . S
C16 O6 1.282 . S
C16 O17 1.216 1_545 S
O17 C16 1.216 1_565 S
H18 C13 0.930 . S
H19 C14 0.930 . S
O20 Cu0 1.959 1_556 S
O20 C7 1.251 . S
H21 C4 0.930 . S
H22 C15 0.929 . S
Cu23 N24 1.999 . S
Cu23 O29 1.974 . S
Cu23 N34 1.985 . S
Cu23 O43 1.959 . S
N24 Cu23 1.999 . S
N24 C26 1.263 . S
N24 C28 1.380 1_455 S
N25 C26 1.358 . S
N25 C27 1.400 . S
C26 N24 1.263 . S
C26 N25 1.358 . S
C26 H32 0.930 . S
C27 N25 1.400 . S
C27 C28 1.352 1_455 S
C27 H44 0.930 1_455 S
C28 N24 1.380 1_655 S
C28 C27 1.352 1_655 S
C28 H33 0.937 . S
O29 Cu23 1.974 . S
O29 C39 1.282 . S
C30 O31 1.261 . S
C30 O43 1.251 . S
O31 C30 1.261 . S
H32 C26 0.930 . S
H33 C28 0.937 . S
N34 Cu23 1.985 . S
N34 C36 1.335 . S
N34 C37 1.390 . S
N35 C36 1.345 . S
N35 C38 1.336 . S
C36 N34 1.335 . S
C36 N35 1.345 . S
C36 H41 0.930 . S
C37 N34 1.390 . S
C37 C38 1.346 . S
C37 H42 0.930 . S
C38 N35 1.336 . S
C38 C37 1.346 . S
C38 H45 0.929 . S
C39 O29 1.282 . S
C39 O40 1.216 . S
O40 C39 1.216 . S
H41 C36 0.930 . S
H42 C37 0.930 . S
O43 Cu23 1.959 . S
O43 C30 1.251 . S
H44 C27 0.930 1_655 S
H45 C38 0.929 . S
Mg46 O47 2.028 . S
Mg46 O53 1.986 . S
Mg46 O55 2.114 1_545 S
Mg46 O56 2.251 . S
Mg46 O59 2.010 . S
O47 Mg46 2.028 . S
O47 C50 1.250 1_455 S
O48 Mg49 2.028 . S
O48 C50 1.248 . S
Mg49 O48 2.028 . S
Mg49 O54 2.032 1_655 S
Mg49 O56 2.079 1_655 S
C50 O47 1.250 1_655 S
C50 O48 1.248 . S
C51 O52 1.264 . S
C51 O59 1.249 . S
O52 C51 1.264 . S
O53 Mg46 1.986 . S
O53 C57 1.246 . S
O54 Mg49 2.032 1_455 S
O54 C57 1.259 . S
O55 Mg46 2.114 1_565 S
O55 C58 1.252 . S
O56 Mg46 2.251 . S
O56 Mg49 2.079 1_455 S
O56 C58 1.273 1_545 S
C57 O53 1.246 . S
C57 O54 1.259 . S
C58 O55 1.252 . S
C58 O56 1.273 1_565 S
O59 Mg46 2.010 . S
O59 C51 1.249 . S
Mg60 O61 2.028 . S
Mg60 O67 1.986 . S
Mg60 O69 2.114 1_545 S
Mg60 O70 2.251 . S
Mg60 O73 2.010 1_455 S
O61 Mg60 2.028 . S
O61 C64 1.250 . S
O62 Mg63 2.028 . S
O62 C64 1.248 . S
Mg63 O62 2.028 . S
Mg63 O68 2.032 . S
Mg63 O70 2.079 . S
C64 O61 1.250 . S
C64 O62 1.248 . S
C65 O66 1.264 . S
C65 O73 1.249 . S
O66 C65 1.264 . S
O67 Mg60 1.986 . S
O67 C71 1.246 . S
O68 Mg63 2.032 . S
O68 C71 1.259 . S
O69 Mg60 2.114 1_565 S
O69 C72 1.252 . S
O70 Mg60 2.251 . S
O70 Mg63 2.079 . S
O70 C72 1.273 1_545 S
C71 O67 1.246 . S
C71 O68 1.259 . S
C72 O69 1.252 . S
C72 O70 1.273 1_565 S
O73 Mg60 2.010 1_655 S
O73 C65 1.249 . S
H74 C80 0.930 . S
H75 C84 0.930 . S
H76 C89 0.929 . S
H77 C87 0.929 . S
H78 C82 0.929 . S
H79 C88 0.929 . S
C80 H74 0.930 . S
C80 C81 1.367 . S
C80 C88 1.378 . S
C81 C80 1.367 . S
C81 C89 1.433 . S
C82 H78 0.929 . S
C82 C84 1.378 . S
C82 C86 1.350 . S
C83 C86 1.463 . S
C83 C88 1.350 . S
C83 N91 1.427 . S
C84 H75 0.930 . S
C84 C82 1.378 . S
C84 C85 1.367 . S
C85 C84 1.367 . S
C85 C87 1.433 . S
C86 C82 1.350 . S
C86 C83 1.463 . S
C86 N90 1.427 . S
C87 H77 0.929 . S
C87 C85 1.433 . S
C87 N90 1.384 . S
C88 H79 0.929 . S
C88 C80 1.378 . S
C88 C83 1.350 . S
C89 H76 0.929 . S
C89 C81 1.433 . S
C89 N91 1.384 . S
N90 C86 1.427 . S
N90 C87 1.384 . S
N91 C83 1.427 . S
N91 C89 1.384 . S
H92 C98 0.930 . S
H93 C102 0.930 . S
H94 C107 0.929 . S
H95 C105 0.929 . S
H96 C100 0.929 . S
H97 C106 0.929 . S
C98 H92 0.930 . S
C98 C99 1.367 . S
C98 C106 1.378 . S
C99 C98 1.367 . S
C99 C107 1.433 . S
C100 H96 0.929 . S
C100 C102 1.378 . S
C100 C104 1.350 . S
C101 C104 1.463 . S
C101 C106 1.350 . S
C101 N109 1.427 . S
C102 H93 0.930 . S
C102 C100 1.378 . S
C102 C103 1.367 . S
C103 C102 1.367 . S
C103 C105 1.433 . S
C104 C100 1.350 . S
C104 C101 1.463 . S
C104 N108 1.427 . S
C105 H95 0.929 . S
C105 C103 1.433 . S
C105 N108 1.384 . S
C106 H97 0.929 . S
C106 C98 1.378 . S
C106 C101 1.350 . S
C107 H94 0.929 . S
C107 C99 1.433 . S
C107 N109 1.384 . S
N108 C104 1.427 . S
N108 C105 1.384 . S
N109 C101 1.427 . S
N109 C107 1.384 . S
H110 C116 0.930 . S
H111 C120 0.930 . S
H112 C125 0.929 1_565 S
H113 C123 0.929 . S
H114 C118 0.929 1_565 S
H115 C124 0.929 . S
C116 H110 0.930 . S
C116 C117 1.367 . S
C116 C124 1.378 . S
C117 C116 1.367 . S
C117 C125 1.433 . S
C118 H114 0.929 1_545 S
C118 C120 1.378 . S
C118 C122 1.350 . S
C119 C122 1.463 . S
C119 C124 1.350 . S
C119 N127 1.427 . S
C120 H111 0.930 . S
C120 C118 1.378 . S
C120 C121 1.367 . S
C121 C120 1.367 . S
C121 C123 1.433 . S
C122 C118 1.350 . S
C122 C119 1.463 . S
C122 N126 1.427 . S
C123 H113 0.929 . S
C123 C121 1.433 . S
C123 N126 1.384 . S
C124 H115 0.929 . S
C124 C116 1.378 . S
C124 C119 1.350 . S
C125 H112 0.929 1_545 S
C125 C117 1.433 . S
C125 N127 1.384 . S
N126 C122 1.427 . S
N126 C123 1.384 . S
N127 C119 1.427 . S
N127 C125 1.384 . S
H128 C134 0.930 . S
H129 C138 0.930 . S
H130 C143 0.929 . S
H131 C141 0.929 . S
H132 C136 0.929 . S
H133 C142 0.929 . S
C134 H128 0.930 . S
C134 C135 1.367 . S
C134 C142 1.378 . S
C135 C134 1.367 . S
C135 C143 1.433 . S
C136 H132 0.929 . S
C136 C138 1.378 . S
C136 C140 1.350 . S
C137 C140 1.463 . S
C137 C142 1.350 . S
C137 N145 1.427 . S
C138 H129 0.930 . S
C138 C136 1.378 . S
C138 C139 1.367 . S
C139 C138 1.367 . S
C139 C141 1.433 . S
C140 C136 1.350 . S
C140 C137 1.463 . S
C140 N144 1.427 . S
C141 H131 0.929 . S
C141 C139 1.433 . S
C141 N144 1.384 . S
C142 H133 0.929 . S
C142 C134 1.378 . S
C142 C137 1.350 . S
C143 H130 0.929 . S
C143 C135 1.433 . S
C143 N145 1.384 . S
N144 C140 1.427 . S
N144 C141 1.384 . S
N145 C137 1.427 . S
N145 C143 1.384 . S
H146 C152 0.938 . S
H147 C156 0.930 . S
H148 C161 0.929 . S
H149 C159 0.929 . S
H150 C154 0.929 . S
H151 C160 0.929 . S
C152 H146 0.938 . S
C152 C153 1.367 . S
C152 C160 1.378 . S
C153 C152 1.367 . S
C153 C161 1.433 . S
C154 H150 0.929 . S
C154 C156 1.378 . S
C154 C158 1.350 . S
C155 C158 1.463 . S
C155 C160 1.350 . S
C155 N163 1.427 . S
C156 H147 0.930 . S
C156 C154 1.378 . S
C156 C157 1.367 . S
C157 C156 1.367 . S
C157 C159 1.433 . S
C158 C154 1.350 . S
C158 C155 1.463 . S
C158 N162 1.427 . S
C159 H149 0.929 . S
C159 C157 1.433 . S
C159 N162 1.384 . S
C160 H151 0.929 . S
C160 C152 1.378 . S
C160 C155 1.350 . S
C161 H148 0.929 . S
C161 C153 1.433 . S
C161 N163 1.384 . S
N162 C158 1.427 . S
N162 C159 1.384 . S
N163 C155 1.427 . S
N163 C161 1.384 . S
H164 C170 0.930 . S
H165 C174 0.930 . S
H166 C179 0.929 . S
H167 C177 0.929 . S
H168 C172 0.929 . S
H169 C178 0.929 . S
C170 H164 0.930 . S
C170 C171 1.367 . S
C170 C178 1.378 . S
C171 C170 1.367 . S
C171 C179 1.433 . S
C172 H168 0.929 . S
C172 C174 1.378 . S
C172 C176 1.350 . S
C173 C176 1.463 . S
C173 C178 1.350 . S
C173 N181 1.427 . S
C174 H165 0.930 . S
C174 C172 1.378 . S
C174 C175 1.367 . S
C175 C174 1.367 . S
C175 C177 1.433 . S
C176 C172 1.350 . S
C176 C173 1.463 . S
C176 N180 1.427 . S
C177 H167 0.929 . S
C177 C175 1.433 . S
C177 N180 1.384 . S
C178 H169 0.929 . S
C178 C170 1.378 . S
C178 C173 1.350 . S
C179 H166 0.929 . S
C179 C171 1.433 . S
C179 N181 1.384 . S
N180 C176 1.427 . S
N180 C177 1.384 . S
N181 C173 1.427 . S
N181 C179 1.384 . S
H182 C188 0.930 . S
H183 C192 0.930 . S
H184 C197 0.929 . S
H185 C195 0.929 . S
H186 C190 0.929 . S
H187 C196 0.929 . S
C188 H182 0.930 . S
C188 C189 1.367 . S
C188 C196 1.378 . S
C189 C188 1.367 . S
C189 C197 1.433 . S
C190 H186 0.929 . S
C190 C192 1.378 . S
C190 C194 1.350 . S
C191 C194 1.463 . S
C191 C196 1.350 . S
C191 N199 1.427 . S
C192 H183 0.930 . S
C192 C190 1.378 . S
C192 C193 1.367 . S
C193 C192 1.367 . S
C193 C195 1.433 . S
C194 C190 1.350 . S
C194 C191 1.463 . S
C194 N198 1.427 . S
C195 H185 0.929 . S
C195 C193 1.433 . S
C195 N198 1.384 . S
C196 H187 0.929 . S
C196 C188 1.378 . S
C196 C191 1.350 . S
C197 H184 0.929 . S
C197 C189 1.433 . S
C197 N199 1.384 . S
N198 C194 1.427 . S
N198 C195 1.384 . S
N199 C191 1.427 . S
N199 C197 1.384 . S
H200 C206 0.930 . S
H201 C210 0.938 . S
H202 C215 0.929 1_655 S
H203 C213 0.929 . S
H204 C208 0.929 1_655 S
H205 C214 0.929 . S
C206 H200 0.930 . S
C206 C207 1.367 . S
C206 C214 1.378 . S
C207 C206 1.367 . S
C207 C215 1.433 . S
C208 H204 0.929 1_455 S
C208 C210 1.378 . S
C208 C212 1.350 . S
C209 C212 1.463 . S
C209 C214 1.350 . S
C209 N217 1.427 . S
C210 H201 0.938 . S
C210 C208 1.378 . S
C210 C211 1.367 . S
C211 C210 1.367 . S
C211 C213 1.433 . S
C212 C208 1.350 . S
C212 C209 1.463 . S
C212 N216 1.427 . S
C213 H203 0.929 . S
C213 C211 1.433 . S
C213 N216 1.384 . S
C214 H205 0.929 . S
C214 C206 1.378 . S
C214 C209 1.350 . S
C215 H202 0.929 1_455 S
C215 C207 1.433 . S
C215 N217 1.384 . S
N216 C212 1.427 . S
N216 C213 1.384 . S
N217 C209 1.427 . S
N217 C215 1.384 . S
C85 C51 1.253 . S
C81 N12 1.431 . S
C103 C71 1.480 . S
C99 N25 1.471 . S
C121 C50 1.432 . S
C117 C16 1.473 . S
C139 C72 1.514 . S
C135 C30 1.513 . S
C157 C64 1.471 . S
C153 C7 1.516 . S
C175 C57 1.437 . S
C171 C39 1.455 . S
C193 C65 1.280 . S
C189 N2 1.467 . S
C207 N35 1.446 . S
C211 C58 1.482 . S
