# Generated by pormake.
# Topology pts, (4,4)-cn, num edge types: 1
# Building blocks:
#     Node 0, Type 0, BuildingBlock: MUDLON_clean_sbu_0, # of connection points: 4
#     Node 1, Type 0, BuildingBlock: MUDLON_clean_sbu_0, # of connection points: 4
#     Node 2, Type 1, BuildingBlock: QUQFOY_clean_sbu_1, # of connection points: 4
#     Node 3, Type 1, BuildingBlock: QUQFOY_clean_sbu_1, # of connection points: 4
#     Edge 4, Type (0, 1), BuildingBlock: FUNLAD_clean_linker_0, # of connection points: 2
#     Edge 5, Type (0, 1), BuildingBlock: FUNLAD_clean_linker_0, # of connection points: 2
#     Edge 6, Type (0, 1), BuildingBlock: FUNLAD_clean_linker_0, # of connection points: 2
#     Edge 7, Type (0, 1), BuildingBlock: FUNLAD_clean_linker_0, # of connection points: 2
#     Edge 8, Type (0, 1), BuildingBlock: FUNLAD_clean_linker_0, # of connection points: 2
#     Edge 9, Type (0, 1), BuildingBlock: FUNLAD_clean_linker_0, # of connection points: 2
#     Edge 10, Type (0, 1), BuildingBlock: FUNLAD_clean_linker_0, # of connection points: 2
#     Edge 11, Type (0, 1), BuildingBlock: FUNLAD_clean_linker_0, # of connection points: 2
# Relax obj value: 0.129
# Max RMSD: 0.245
# Mean RMSD: 0.144
data_MOF--net-pts--node1-MUDLON_clean_sbu_0--node2-QUQFOY_clean_sbu_1--edge1-FUNLAD_clean_linker_0
_symmetry_space_group_name_H-M    P1
_symmetry_Int_Tables_number       1
_symmetry_cell_setting            triclinic
loop_
_symmetry_equiv_pos_as_xyz
'x, y, z'
_cell_length_a     25.217777
_cell_length_b     27.453191
_cell_length_c     47.783972
_cell_angle_alpha  90.077832
_cell_angle_beta   89.953947
_cell_angle_gamma 89.89894
loop_
_atom_site_label
_atom_site_type_symbol
_atom_site_fract_x
_atom_site_fract_y
_atom_site_fract_z
_atom_type_partial_charge
Mg0 Mg 0.49182 1.01223 0.01259 0.0
C1 C 0.39549 0.94822 0.99528 0.0
O2 O 0.3776 0.95554 0.02077 0.0
C3 C 0.54156 0.97517 0.06588 0.0
O4 O 0.49318 0.98277 0.07515 0.0
C5 C 0.39339 0.06668 0.03235 0.0
O6 O 0.37855 0.06002 1.00627 0.0
O7 O 0.44047 0.05557 0.03937 0.0
O8 O 0.44171 0.96277 0.98887 0.0
O9 O 0.53597 0.04946 0.97978 0.0
C10 C 0.54971 0.0193 0.96082 0.0
O11 O 0.5372 0.97322 0.96397 0.0
O12 O 0.55095 0.98017 0.03989 0.0
Mg13 Mg 0.01598 0.5117 0.51332 0.0
C14 C 0.01482 0.57088 0.56222 0.0
O15 O 0.96638 0.55541 0.55739 0.0
C16 C 0.05359 0.47268 0.45768 0.0
O17 O 0.02139 0.50718 0.44913 0.0
C18 C 0.0124 0.60057 0.48263 0.0
O19 O 0.06084 0.59378 0.49201 0.0
O20 O 0.97737 0.56885 0.48873 0.0
O21 O 0.05193 0.55542 0.5464 0.0
O22 O 0.97185 0.45601 0.53647 0.0
C23 C 0.00029 0.41834 0.54088 0.0
O24 O 0.04814 0.41681 0.53006 0.0
O25 O 0.06398 0.46937 0.48368 0.0
O26 O 0.93222 0.97096 0.24263 0.0
Cd27 Cd 0.00529 0.97046 0.26166 0.0
Cd28 Cd 0.98781 0.06888 0.26386 0.0
O29 O 0.91546 0.04972 0.2463 0.0
O30 O 0.01789 0.90123 0.2723 0.0
O31 O 0.00688 0.96014 0.30343 0.0
C32 C 0.01395 0.91442 0.29812 0.0
C33 C 0.99388 0.12415 0.30103 0.0
C34 C 0.90168 1.00714 0.23866 0.0
C35 C 0.08093 0.03406 0.22969 0.0
O36 O 0.0526 0.06973 0.2377 0.0
O37 O 0.07 0.99093 0.2375 0.0
O38 O 0.98152 0.13804 0.27611 0.0
O39 O 0.00029 0.07803 0.30528 0.0
O40 O 0.94943 0.07091 0.7928 0.0
Cd41 Cd 0.01659 0.06519 0.7685 0.0
Cd42 Cd 0.99066 0.9703 0.76853 0.0
O43 O 0.91985 0.9968 0.78453 0.0
O44 O 0.02661 0.13063 0.75128 0.0
O45 O 0.00742 0.06446 0.72675 0.0
C46 C 0.0153 0.111 0.72746 0.0
C47 C 0.9906 0.90624 0.73599 0.0
C48 C 0.91344 0.03889 0.79521 0.0
C49 C 0.08956 1.00097 0.79983 0.0
O50 O 0.05453 0.96866 0.79543 0.0
O51 O 0.08511 0.04288 0.78871 0.0
O52 O 0.97736 0.89973 0.76174 0.0
O53 O 0.00208 0.95 0.72819 0.0
C54 C 0.36864 0.07998 0.08262 0.0
C55 C 0.35308 0.0739 0.05457 0.0
C56 C 0.33133 0.07727 0.10425 0.0
C57 C 0.2776 0.06832 0.09825 0.0
C58 C 0.26177 0.06448 0.07017 0.0
C59 C 0.29897 0.06766 0.04854 0.0
C60 C 0.23807 0.05834 0.12061 0.0
C61 C 0.24201 0.0755 0.14694 0.0
C62 C 0.20235 0.0635 0.16881 0.0
C63 C 0.18721 0.09934 0.18818 0.0
C64 C 0.14836 0.08948 0.20827 0.0
C65 C 0.125 0.04309 0.20991 0.0
H66 H 0.19188 0.98796 0.1566 0.0
C67 C 0.14192 1.00652 0.19133 0.0
C68 C 0.17995 0.01671 0.17082 0.0
H69 H 0.12464 0.97044 0.19208 0.0
H70 H 0.41006 0.08459 0.08799 0.0
H71 H 0.34529 0.07956 0.12562 0.0
H72 H 0.22066 0.05752 0.06496 0.0
H73 H 0.28558 0.06251 0.02721 0.0
H74 H 0.20365 0.03668 0.11494 0.0
H75 H 0.27314 0.10115 0.15228 0.0
H76 H 0.20438 0.13545 0.18725 0.0
H77 H 0.13637 0.11832 0.22244 0.0
C78 C 0.01195 0.33475 0.55991 0.0
C79 C 0.98447 0.37932 0.56054 0.0
C80 C 0.0053 0.30047 0.58114 0.0
C81 C 0.97067 0.30975 0.60363 0.0
C82 C 0.9412 0.35338 0.60356 0.0
C83 C 0.94773 0.38776 0.58211 0.0
C84 C 0.96893 0.27746 0.62872 0.0
C85 C 0.98555 0.23064 0.62864 0.0
C86 C 0.99158 0.20071 0.65443 0.0
C87 C 0.99093 0.14966 0.65224 0.0
C88 C -0.00097 0.12038 0.67584 0.0
C89 C 0.00881 0.14158 0.70211 0.0
H90 H 0.00446 0.261 0.68316 0.0
C91 C 0.01027 0.19266 0.70423 0.0
C92 C 0.00178 0.2219 0.68071 0.0
H93 H 0.0178 0.21023 0.72414 0.0
H94 H 0.04058 0.32712 0.54355 0.0
H95 H 0.02978 0.26812 0.58048 0.0
H96 H 0.91443 0.36169 0.62066 0.0
H97 H 0.9263 0.42193 0.58328 0.0
H98 H 0.95443 0.29343 0.64807 0.0
H99 H 0.99516 0.21302 0.60893 0.0
H100 H 0.98395 0.13232 0.6322 0.0
H101 H -0.00237 0.08116 0.67347 0.0
C102 C 0.57639 0.96641 0.11478 0.0
C103 C 0.58614 0.97089 0.08592 0.0
C104 C 0.61796 0.97008 0.13407 0.0
C105 C 0.67013 0.9785 0.12482 0.0
C106 C 0.68006 0.98118 0.09596 0.0
C107 C 0.63867 0.97698 0.0767 0.0
C108 C 0.71426 0.98855 0.14455 0.0
C109 C 0.71652 0.97093 0.17079 0.0
C110 C 0.76178 0.98179 0.18956 0.0
C111 C 0.7825 0.9448 0.20655 0.0
C112 C 0.82735 0.95336 0.22302 0.0
C113 C 0.85137 0.99955 0.2234 0.0
H114 H 0.76877 0.05798 0.17815 0.0
C115 C 0.82891 0.03731 0.20751 0.0
C116 C 0.78476 0.02843 0.19056 0.0
H117 H 0.84654 0.07326 0.20739 0.0
H118 H 0.53636 0.96189 0.12258 0.0
H119 H 0.60863 0.96866 0.15616 0.0
H120 H 0.71986 0.98769 0.08829 0.0
H121 H 0.64766 0.98075 0.05464 0.0
H122 H 0.74726 1.01009 0.13673 0.0
H123 H 0.68676 0.94531 0.17802 0.0
H124 H 0.76509 0.90874 0.20635 0.0
H125 H 0.8436 0.92364 0.23521 0.0
C126 C 0.98117 0.62112 0.60181 0.0
C127 C 0.0231 0.6092 0.58365 0.0
C128 C 0.98505 0.66043 0.62016 0.0
C129 C 0.0314 0.68881 0.62119 0.0
C130 C 0.0738 0.67656 0.60332 0.0
C131 C 0.06986 0.63692 0.58482 0.0
C132 C 0.0349 0.73278 0.6395 0.0
C133 C 0.00591 0.73759 0.66311 0.0
C134 C 0.00438 0.78185 0.68115 0.0
C135 C 0.98409 0.77715 0.70837 0.0
C136 C 0.9793 0.81759 0.7259 0.0
C137 C 0.99428 0.86411 0.71662 0.0
H138 H 0.03374 0.83395 0.65061 0.0
C139 C 0.01424 0.8692 0.68928 0.0
C140 C 0.01923 0.82848 0.67167 0.0
H141 H 0.02611 0.90459 0.6815 0.0
H142 H 0.94438 0.60081 0.60139 0.0
H143 H 0.95066 0.66933 0.63271 0.0
H144 H 0.1098 0.69804 0.60346 0.0
H145 H 0.10266 0.62897 0.57088 0.0
H146 H 0.06243 0.76125 0.63348 0.0
H147 H 0.98244 0.70688 0.67023 0.0
H148 H 0.97182 0.74189 0.7162 0.0
H149 H 0.96378 0.81224 0.74681 0.0
C150 C 0.37635 0.93596 0.94438 0.0
C151 C 0.35848 0.93553 0.9723 0.0
C152 C 0.34032 0.93418 0.92223 0.0
C153 C 0.28557 0.9317 0.92749 0.0
C154 C 0.26796 0.92727 0.95527 0.0
C155 C 0.30401 0.92952 0.97751 0.0
C156 C 0.24602 0.93524 0.90455 0.0
C157 C 0.254 0.96304 0.88165 0.0
C158 C 0.21291 0.97106 0.85983 0.0
C159 C 0.21307 0.01481 0.8446 0.0
C160 C 0.17368 0.02442 0.82472 0.0
C161 C 0.13369 0.99006 0.81938 0.0
H162 H 0.17348 0.90128 0.86451 0.0
C163 C 0.13481 0.94547 0.8339 0.0
C164 C 0.1739 0.93606 0.85388 0.0
H165 H 0.10493 0.91792 0.83017 0.0
H166 H 0.41809 0.93995 0.93954 0.0
H167 H 0.35538 0.93578 0.90103 0.0
H168 H 0.22599 0.92452 0.95985 0.0
H169 H 0.2889 0.92884 0.99873 0.0
H170 H 0.20764 0.91837 0.90794 0.0
H171 H 0.29041 0.98391 0.87985 0.0
H172 H 0.24306 0.04218 0.84856 0.0
H173 H 0.17419 0.059 0.81383 0.0
C174 C 0.07373 0.38462 0.44807 0.0
C175 C 0.0666 0.43244 0.4382 0.0
C176 C 0.07427 0.34523 0.42935 0.0
C177 C 0.06813 0.35313 0.4004 0.0
C178 C 0.06518 0.40122 0.39056 0.0
C179 C 0.0639 0.44037 0.40922 0.0
C180 C 0.06229 0.31284 0.37975 0.0
C181 C 0.04305 0.2683 0.38603 0.0
C182 C 0.02976 0.23155 0.36416 0.0
C183 C 0.03167 0.18166 0.37067 0.0
C184 C 0.01912 0.14651 0.35041 0.0
C185 C 0.00361 0.16066 0.32335 0.0
H186 H 0.00857 0.2836 0.33177 0.0
C187 C 2e-05 0.21061 0.31719 0.0
C188 C 0.0128 0.24559 0.3373 0.0
H189 H 0.98779 0.22288 0.29664 0.0
H190 H 0.07588 0.37735 0.47031 0.0
H191 H 0.0784 0.30882 0.4377 0.0
H192 H 0.06113 0.40849 0.36837 0.0
H193 H 0.05862 0.47681 0.40098 0.0
H194 H 0.07048 0.3217 0.35803 0.0
H195 H 0.03545 0.25847 0.40765 0.0
H196 H 0.04371 0.16983 0.39133 0.0
H197 H 0.02215 0.10833 0.35586 0.0
C198 C 0.61463 0.0741 0.93616 0.0
C199 C 0.58037 0.03384 0.93587 0.0
C200 C 0.64861 0.08274 0.91343 0.0
C201 C 0.64827 0.05139 0.89001 0.0
C202 C 0.61142 1.01327 0.88917 0.0
C203 C 0.57825 1.00431 0.91188 0.0
C204 C 0.68709 0.05476 0.86667 0.0
C205 C 0.73595 0.07386 0.86936 0.0
C206 C 0.77817 0.06674 0.84799 0.0
C207 C 0.81953 0.10067 0.84619 0.0
C208 C 0.8625 0.09253 0.82825 0.0
C209 C 0.86547 0.04974 0.81206 0.0
H210 H 0.75034 0.99659 0.8327 0.0
C211 C 0.82364 0.01612 0.81352 0.0
C212 C 0.78051 0.02446 0.83128 0.0
H213 H 0.82478 0.98269 0.80148 0.0
H214 H 0.61675 0.09761 0.95435 0.0
H215 H 0.67539 0.11342 0.9145 0.0
H216 H 0.60983 0.98886 0.87134 0.0
H217 H 0.55169 0.97337 0.91088 0.0
H218 H 0.67672 0.03635 0.84729 0.0
H219 H 0.74682 0.09312 0.88835 0.0
H220 H 0.81903 0.13323 0.85903 0.0
H221 H 0.89415 0.11914 0.82774 0.0
C222 C 0.04426 0.673 0.45625 0.0
C223 C 0.00202 0.64209 0.46354 0.0
C224 C 0.03721 0.71046 0.43699 0.0
C225 C 0.98764 0.71825 0.42443 0.0
C226 C 0.94461 0.6889 0.43251 0.0
C227 C 0.95181 0.65077 0.45175 0.0
C228 C 0.98092 0.75684 0.4029 0.0
C229 C 0.01932 0.76618 0.38401 0.0
C230 C 0.01571 0.80452 0.36224 0.0
C231 C 0.04107 0.79662 0.33649 0.0
C232 C 0.04052 0.83243 0.31577 0.0
C233 C 0.01586 0.87756 0.32065 0.0
H234 H 0.97197 0.85715 0.38713 0.0
C235 C 0.99132 0.88601 0.34665 0.0
C236 C 0.9908 0.84961 0.36721 0.0
H237 H 0.97182 0.92041 0.35092 0.0
H238 H 0.0834 0.66796 0.46512 0.0
H239 H 0.0708 0.73338 0.43196 0.0
H240 H 0.90582 0.69461 0.42335 0.0
H241 H 0.91842 0.62781 0.45707 0.0
H242 H 0.9433 0.77608 0.40178 0.0
H243 H 0.05441 0.74312 0.38355 0.0
H244 H 0.06105 0.76241 0.33228 0.0
H245 H 0.05984 0.82489 0.29597 0.0
loop_
_geom_bond_atom_site_label_1
_geom_bond_atom_site_label_2
_geom_bond_distance
_geom_bond_site_symmetry_2
_ccdc_geom_bond_type
Mg0 O7 2.141 . S
Mg0 O8 2.048 1_554 S
Mg0 O9 2.048 1_554 S
Mg0 O12 2.141 . S
C1 O2 1.313 . S
C1 O8 1.195 1_565 S
O2 C1 1.313 . S
C3 O4 1.245 . S
C3 O12 1.289 1_565 S
O4 C3 1.245 . S
C5 O6 1.245 . S
C5 O7 1.289 1_565 S
O6 C5 1.245 . S
O7 Mg0 2.141 . S
O7 C5 1.289 1_545 S
O8 Mg0 2.048 1_556 S
O8 C1 1.195 1_545 S
O9 Mg0 2.048 1_556 S
O9 C10 1.195 1_545 S
C10 O9 1.195 1_565 S
C10 O11 1.313 . S
O11 C10 1.313 . S
O12 Mg0 2.141 . S
O12 C3 1.289 1_545 S
Mg13 O20 2.141 . S
Mg13 O21 2.048 . S
Mg13 O22 2.048 . S
Mg13 O25 2.141 . S
C14 O15 1.313 . S
C14 O21 1.195 1_455 S
O15 C14 1.313 . S
C16 O17 1.245 . S
C16 O25 1.289 1_455 S
O17 C16 1.245 . S
C18 O19 1.245 . S
C18 O20 1.289 1_455 S
O19 C18 1.245 . S
O20 Mg13 2.141 . S
O20 C18 1.289 1_655 S
O21 Mg13 2.048 . S
O21 C14 1.195 1_655 S
O22 Mg13 2.048 . S
O22 C23 1.195 1_655 S
C23 O22 1.195 1_455 S
C23 O24 1.313 . S
O24 C23 1.313 . S
O25 Mg13 2.141 . S
O25 C16 1.289 1_655 S
O26 Cd27 2.223 1_655 S
O26 C34 1.315 . S
Cd27 O26 2.223 1_455 S
Cd27 O30 2.297 1_455 S
Cd27 O31 2.439 1_455 S
Cd27 O37 2.240 1_565 S
Cd28 O29 2.240 1_545 S
Cd28 O36 2.223 1_655 S
Cd28 O38 2.297 1_655 S
Cd28 O39 2.439 1_655 S
O29 Cd28 2.240 1_565 S
O29 C34 1.279 . S
O30 Cd27 2.297 1_655 S
O30 C32 1.247 . S
O31 Cd27 2.439 1_655 S
O31 C32 1.208 . S
C32 O30 1.247 . S
C32 O31 1.208 . S
C33 O38 1.247 . S
C33 O39 1.208 . S
C34 O26 1.315 . S
C34 O29 1.279 . S
C35 O36 1.315 . S
C35 O37 1.279 . S
O36 Cd28 2.223 1_455 S
O36 C35 1.315 . S
O37 Cd27 2.240 1_545 S
O37 C35 1.279 . S
O38 Cd28 2.297 1_455 S
O38 C33 1.247 . S
O39 Cd28 2.439 1_455 S
O39 C33 1.208 . S
O40 Cd41 2.223 1_655 S
O40 C48 1.315 . S
Cd41 O40 2.223 1_455 S
Cd41 O44 2.297 1_455 S
Cd41 O45 2.439 1_455 S
Cd41 O51 2.240 1_545 S
Cd42 O43 2.240 1_565 S
Cd42 O50 2.223 1_655 S
Cd42 O52 2.297 1_655 S
Cd42 O53 2.439 1_655 S
O43 Cd42 2.240 1_545 S
O43 C48 1.279 . S
O44 Cd41 2.297 1_655 S
O44 C46 1.247 . S
O45 Cd41 2.439 1_655 S
O45 C46 1.208 . S
C46 O44 1.247 . S
C46 O45 1.208 . S
C47 O52 1.247 . S
C47 O53 1.208 . S
C48 O40 1.315 . S
C48 O43 1.279 . S
C49 O50 1.315 . S
C49 O51 1.279 . S
O50 Cd42 2.223 1_455 S
O50 C49 1.315 . S
O51 Cd41 2.240 1_565 S
O51 C49 1.279 . S
O52 Cd42 2.297 1_455 S
O52 C47 1.247 . S
O53 Cd42 2.439 1_455 S
O53 C47 1.208 . S
C54 C55 1.400 . S
C54 C56 1.383 . S
C54 H70 0.951 . S
C55 C54 1.400 . S
C55 C59 1.369 1_545 S
C56 C54 1.383 . S
C56 C57 1.402 . S
C56 H71 0.951 . S
C57 C56 1.402 . S
C57 C58 1.375 1_545 S
C57 C60 1.481 . S
C58 C57 1.375 1_565 S
C58 C59 1.367 . S
C58 H72 0.951 . S
C59 C55 1.369 1_565 S
C59 C58 1.367 . S
C59 H73 0.950 . S
C60 C57 1.481 . S
C60 C61 1.297 . S
C60 H74 0.950 1_545 S
C61 C60 1.297 . S
C61 C62 1.479 . S
C61 H75 0.950 . S
C62 C61 1.479 . S
C62 C63 1.375 . S
C62 C68 1.412 . S
C63 C62 1.375 . S
C63 C64 1.369 . S
C63 H76 0.950 . S
C64 C63 1.369 . S
C64 C65 1.392 . S
C64 H77 0.951 . S
C65 C64 1.392 . S
C65 C67 1.384 1_545 S
H66 C68 0.941 1_565 S
C67 C65 1.384 1_565 S
C67 C68 1.384 1_565 S
C67 H69 0.950 . S
C68 C62 1.412 . S
C68 H66 0.941 1_545 S
C68 C67 1.384 1_545 S
H69 C67 0.950 . S
H70 C54 0.951 . S
H71 C56 0.951 . S
H72 C58 0.951 . S
H73 C59 0.950 . S
H74 C60 0.950 1_565 S
H75 C61 0.950 . S
H76 C63 0.950 . S
H77 C64 0.951 . S
C78 C79 1.386 1_455 S
C78 C80 1.383 . S
C78 H94 0.951 . S
C79 C78 1.386 1_655 S
C79 C83 1.383 . S
C80 C78 1.383 . S
C80 C81 1.402 1_455 S
C80 H95 0.951 . S
C81 C80 1.402 1_655 S
C81 C82 1.375 . S
C81 C84 1.481 . S
C82 C81 1.375 . S
C82 C83 1.367 . S
C82 H96 0.951 . S
C83 C79 1.383 . S
C83 C82 1.367 . S
C83 H97 0.950 . S
C84 C81 1.481 . S
C84 C85 1.297 1_655 S
C84 H98 0.950 . S
C85 C84 1.297 1_455 S
C85 C86 1.479 1_455 S
C85 H99 0.950 . S
C86 C85 1.479 1_655 S
C86 C87 1.375 1_655 S
C86 C92 1.404 . S
C87 C86 1.375 1_455 S
C87 C88 1.369 1_455 S
C87 H100 0.950 . S
C88 C87 1.369 1_655 S
C88 C89 1.392 . S
C88 H101 0.951 1_655 S
C89 C88 1.392 . S
C89 C91 1.384 . S
H90 C92 0.949 . S
C91 C89 1.384 . S
C91 C92 1.385 . S
C91 H93 0.950 . S
C92 C86 1.404 . S
C92 H90 0.949 . S
C92 C91 1.385 . S
H93 C91 0.950 . S
H94 C78 0.951 . S
H95 C80 0.951 . S
H96 C82 0.951 . S
H97 C83 0.950 . S
H98 C84 0.950 . S
H99 C85 0.950 . S
H100 C87 0.950 . S
H101 C88 0.951 1_455 S
C102 C103 1.386 . S
C102 C104 1.383 . S
C102 H118 0.951 . S
C103 C102 1.386 . S
C103 C107 1.383 1_565 S
C104 C102 1.383 . S
C104 C105 1.402 . S
C104 H119 0.951 . S
C105 C104 1.402 . S
C105 C106 1.375 1_565 S
C105 C108 1.481 . S
C106 C105 1.375 1_545 S
C106 C107 1.367 . S
C106 H120 0.951 . S
C107 C103 1.383 1_545 S
C107 C106 1.367 . S
C107 H121 0.950 . S
C108 C105 1.481 . S
C108 C109 1.297 . S
C108 H122 0.950 1_565 S
C109 C108 1.297 . S
C109 C110 1.479 . S
C109 H123 0.950 . S
C110 C109 1.479 . S
C110 C111 1.375 . S
C110 C116 1.404 . S
C111 C110 1.375 . S
C111 C112 1.369 . S
C111 H124 0.950 . S
C112 C111 1.369 . S
C112 C113 1.392 . S
C112 H125 0.951 . S
C113 C112 1.392 . S
C113 C115 1.384 . S
H114 C116 0.949 1_545 S
C115 C113 1.384 . S
C115 C116 1.385 . S
C115 H117 0.950 1_565 S
C116 C110 1.404 . S
C116 H114 0.949 1_565 S
C116 C115 1.385 . S
H117 C115 0.950 1_545 S
H118 C102 0.951 . S
H119 C104 0.951 . S
H120 C106 0.951 . S
H121 C107 0.950 . S
H122 C108 0.950 1_545 S
H123 C109 0.950 . S
H124 C111 0.950 . S
H125 C112 0.951 . S
C126 C127 1.386 . S
C126 C128 1.383 . S
C126 H142 0.951 . S
C127 C126 1.386 . S
C127 C131 1.383 . S
C128 C126 1.383 . S
C128 C129 1.402 . S
C128 H143 0.951 . S
C129 C128 1.402 . S
C129 C130 1.375 . S
C129 C132 1.481 . S
C130 C129 1.375 . S
C130 C131 1.367 . S
C130 H144 0.951 . S
C131 C127 1.383 . S
C131 C130 1.367 . S
C131 H145 0.950 . S
C132 C129 1.481 . S
C132 C133 1.297 . S
C132 H146 0.950 . S
C133 C132 1.297 . S
C133 C134 1.479 . S
C133 H147 0.950 . S
C134 C133 1.479 . S
C134 C135 1.375 . S
C134 C140 1.404 . S
C135 C134 1.375 . S
C135 C136 1.369 . S
C135 H148 0.950 . S
C136 C135 1.369 . S
C136 C137 1.392 . S
C136 H149 0.951 . S
C137 C136 1.392 . S
C137 C139 1.384 . S
H138 C140 0.949 . S
C139 C137 1.384 . S
C139 C140 1.385 . S
C139 H141 0.950 . S
C140 C134 1.404 . S
C140 H138 0.949 . S
C140 C139 1.385 . S
H141 C139 0.950 . S
H142 C126 0.951 . S
H143 C128 0.951 . S
H144 C130 0.951 . S
H145 C131 0.950 . S
H146 C132 0.950 . S
H147 C133 0.950 . S
H148 C135 0.950 . S
H149 C136 0.951 . S
C150 C151 1.386 1_545 S
C150 C152 1.383 . S
C150 H166 0.951 . S
C151 C150 1.386 1_565 S
C151 C155 1.383 . S
C152 C150 1.383 . S
C152 C153 1.402 1_545 S
C152 H167 0.951 . S
C153 C152 1.402 1_565 S
C153 C154 1.375 . S
C153 C156 1.481 . S
C154 C153 1.375 . S
C154 C155 1.367 . S
C154 H168 0.951 . S
C155 C151 1.383 . S
C155 C154 1.367 . S
C155 H169 0.950 . S
C156 C153 1.481 . S
C156 C157 1.297 . S
C156 H170 0.950 . S
C157 C156 1.297 . S
C157 C158 1.479 . S
C157 H171 0.950 . S
C158 C157 1.479 . S
C158 C159 1.375 . S
C158 C164 1.404 . S
C159 C158 1.375 . S
C159 C160 1.369 . S
C159 H172 0.950 1_565 S
C160 C159 1.369 . S
C160 C161 1.392 . S
C160 H173 0.951 1_565 S
C161 C160 1.392 . S
C161 C163 1.384 . S
H162 C164 0.949 . S
C163 C161 1.384 . S
C163 C164 1.385 . S
C163 H165 0.950 . S
C164 C158 1.404 . S
C164 H162 0.949 . S
C164 C163 1.385 . S
H165 C163 0.950 . S
H166 C150 0.951 . S
H167 C152 0.951 . S
H168 C154 0.951 . S
H169 C155 0.950 . S
H170 C156 0.950 . S
H171 C157 0.950 . S
H172 C159 0.950 1_545 S
H173 C160 0.951 1_545 S
C174 C175 1.386 1_655 S
C174 C176 1.383 . S
C174 H190 0.951 . S
C175 C174 1.386 1_455 S
C175 C179 1.383 . S
C176 C174 1.383 . S
C176 C177 1.402 1_655 S
C176 H191 0.951 . S
C177 C176 1.402 1_455 S
C177 C178 1.375 . S
C177 C180 1.481 . S
C178 C177 1.375 . S
C178 C179 1.367 . S
C178 H192 0.951 . S
C179 C175 1.383 . S
C179 C178 1.367 . S
C179 H193 0.950 . S
C180 C177 1.481 . S
C180 C181 1.297 1_455 S
C180 H194 0.950 . S
C181 C180 1.297 1_655 S
C181 C182 1.479 1_655 S
C181 H195 0.950 . S
C182 C181 1.479 1_455 S
C182 C183 1.375 1_455 S
C182 C188 1.404 . S
C183 C182 1.375 1_655 S
C183 C184 1.369 . S
C183 H196 0.950 . S
C184 C183 1.369 . S
C184 C185 1.392 1_655 S
C184 H197 0.951 . S
C185 C184 1.392 1_455 S
C185 C187 1.384 . S
H186 C188 0.949 . S
C187 C185 1.384 . S
C187 C188 1.385 . S
C187 H189 0.950 . S
C188 C182 1.404 . S
C188 H186 0.949 . S
C188 C187 1.385 . S
H189 C187 0.950 . S
H190 C174 0.951 . S
H191 C176 0.951 . S
H192 C178 0.951 . S
H193 C179 0.950 . S
H194 C180 0.950 . S
H195 C181 0.950 . S
H196 C183 0.950 . S
H197 C184 0.951 . S
C198 C199 1.386 1_545 S
C198 C200 1.383 . S
C198 H214 0.951 . S
C199 C198 1.386 1_565 S
C199 C203 1.383 . S
C200 C198 1.383 . S
C200 C201 1.402 1_545 S
C200 H215 0.951 . S
C201 C200 1.402 1_565 S
C201 C202 1.375 . S
C201 C204 1.481 . S
C202 C201 1.375 . S
C202 C203 1.367 . S
C202 H216 0.951 . S
C203 C199 1.383 . S
C203 C202 1.367 . S
C203 H217 0.950 . S
C204 C201 1.481 . S
C204 C205 1.297 . S
C204 H218 0.950 . S
C205 C204 1.297 . S
C205 C206 1.479 1_565 S
C205 H219 0.950 1_565 S
C206 C205 1.479 1_545 S
C206 C207 1.384 . S
C206 C212 1.399 1_545 S
C207 C206 1.384 . S
C207 C208 1.369 . S
C207 H220 0.950 . S
C208 C207 1.369 . S
C208 C209 1.392 . S
C208 H221 0.951 . S
C209 C208 1.392 . S
C209 C211 1.384 1_545 S
H210 C212 0.949 . S
C211 C209 1.384 1_565 S
C211 C212 1.385 . S
C211 H213 0.950 . S
C212 C206 1.399 1_565 S
C212 H210 0.949 . S
C212 C211 1.385 . S
H213 C211 0.950 . S
H214 C198 0.951 . S
H215 C200 0.951 . S
H216 C202 0.951 . S
H217 C203 0.950 . S
H218 C204 0.950 . S
H219 C205 0.950 1_545 S
H220 C207 0.950 . S
H221 C208 0.951 . S
C222 C223 1.386 1_455 S
C222 C224 1.382 1_455 S
C222 H238 0.951 . S
C223 C222 1.386 1_655 S
C223 C227 1.383 . S
C224 C222 1.382 1_655 S
C224 C225 1.404 . S
C224 H239 0.949 1_655 S
C225 C224 1.404 . S
C225 C226 1.375 . S
C225 C228 1.481 . S
C226 C225 1.375 . S
C226 C227 1.367 . S
C226 H240 0.951 . S
C227 C223 1.383 . S
C227 C226 1.367 . S
C227 H241 0.950 . S
C228 C225 1.481 . S
C228 C229 1.297 . S
C228 H242 0.950 . S
C229 C228 1.297 . S
C229 C230 1.479 . S
C229 H243 0.950 . S
C230 C229 1.479 . S
C230 C231 1.375 . S
C230 C236 1.404 . S
C231 C230 1.375 . S
C231 C232 1.369 . S
C231 H244 0.950 1_655 S
C232 C231 1.369 . S
C232 C233 1.392 . S
C232 H245 0.951 1_655 S
C233 C232 1.392 . S
C233 C235 1.384 . S
H234 C236 0.949 . S
C235 C233 1.384 . S
C235 C236 1.385 . S
C235 H237 0.950 . S
C236 C230 1.404 . S
C236 H234 0.949 . S
C236 C235 1.385 . S
H237 C235 0.950 . S
H238 C222 0.951 . S
H239 C224 0.949 1_455 S
H240 C226 0.951 . S
H241 C227 0.950 . S
H242 C228 0.950 . S
H243 C229 0.950 . S
H244 C231 0.950 1_455 S
H245 C232 0.951 1_455 S
C65 C35 1.468 . S
C55 C5 1.470 1_545 S
C89 C46 1.465 . S
C79 C23 1.570 1_655 S
C113 C34 1.468 . S
C103 C3 1.469 . S
C137 C47 1.552 . S
C127 C14 1.556 . S
C161 C49 1.532 . S
C151 C1 1.519 . S
C185 C33 1.397 . S
C175 C16 1.474 . S
C209 C48 1.541 . S
C199 C10 1.538 . S
C223 C18 1.504 1_655 S
C233 C32 1.465 . S
