# Generated by pormake.
# Topology pth, (4,4)-cn, num edge types: 1
# Building blocks:
#     Node 0, Type 0, BuildingBlock: AZAVOO_clean_sbu_0, # of connection points: 4
#     Node 1, Type 0, BuildingBlock: AZAVOO_clean_sbu_0, # of connection points: 4
#     Node 2, Type 0, BuildingBlock: AZAVOO_clean_sbu_0, # of connection points: 4
#     Node 3, Type 1, BuildingBlock: KOZSID_clean_sbu_0, # of connection points: 4
#     Node 4, Type 1, BuildingBlock: KOZSID_clean_sbu_0, # of connection points: 4
#     Node 5, Type 1, BuildingBlock: KOZSID_clean_sbu_0, # of connection points: 4
#     Edge 6, Type (0, 1), None
#     Edge 7, Type (0, 1), None
#     Edge 8, Type (0, 1), None
#     Edge 9, Type (0, 1), None
#     Edge 10, Type (0, 1), None
#     Edge 11, Type (0, 1), None
#     Edge 12, Type (0, 1), None
#     Edge 13, Type (0, 1), None
#     Edge 14, Type (0, 1), None
#     Edge 15, Type (0, 1), None
#     Edge 16, Type (0, 1), None
#     Edge 17, Type (0, 1), None
# Relax obj value: 0.068
# Max RMSD: 0.233
# Mean RMSD: 0.107
data_MOF--net-pth--node1-AZAVOO_clean_sbu_0--node2-KOZSID_clean_sbu_0--edge1-none
_symmetry_space_group_name_H-M    P1
_symmetry_Int_Tables_number       1
_symmetry_cell_setting            triclinic
loop_
_symmetry_equiv_pos_as_xyz
'x, y, z'
_cell_length_a     13.276169
_cell_length_b     13.551513
_cell_length_c     29.644699
_cell_angle_alpha  86.160013
_cell_angle_beta   88.657495
_cell_angle_gamma 123.70042
loop_
_atom_site_label
_atom_site_type_symbol
_atom_site_fract_x
_atom_site_fract_y
_atom_site_fract_z
_atom_type_partial_charge
Mg0 Mg 0.20079 0.15327 0.03589 0.0
O1 O 0.09463 0.02406 0.98138 0.0
O2 O 0.05175 0.12699 0.93312 0.0
Mg3 Mg 0.17525 0.3269 0.94186 0.0
C4 C 0.03855 0.02952 0.94791 0.0
C5 C 0.04446 0.89108 0.0887 0.0
O6 O 0.95912 0.87579 0.06274 0.0
O7 O 0.04324 0.16585 0.05904 0.0
O8 O 0.07249 0.30948 0.00748 0.0
O9 O 0.39094 0.22533 0.00492 0.0
O10 O 0.28709 0.30084 0.98814 0.0
C11 C 0.02924 0.24939 0.04614 0.0
C12 C 0.38871 0.3114 0.98451 0.0
O13 O 0.14428 0.99307 0.08672 0.0
Mg14 Mg 0.97421 0.07607 0.36356 0.0
O15 O 0.15684 0.1215 0.38507 0.0
O16 O 0.21789 0.27467 0.42627 0.0
Mg17 Mg 0.0859 0.33461 0.42918 0.0
C18 C 0.23203 0.1976 0.41025 0.0
C19 C 0.07918 0.97409 0.29345 0.0
O20 O 0.1846 0.06948 0.30092 0.0
O21 O 0.04155 0.24306 0.31275 0.0
O22 O 0.11184 0.39948 0.35371 0.0
O23 O 0.79227 0.05229 0.36576 0.0
O24 O 0.93443 0.15967 0.41142 0.0
C25 C 0.08402 0.35327 0.31612 0.0
C26 C 0.82958 0.12381 0.39746 0.0
O27 O 0.98169 0.96049 0.30993 0.0
Mg28 Mg 0.07051 0.05164 0.67147 0.0
O29 O 0.21353 0.1674 0.71969 0.0
O30 O 0.11321 0.19152 0.77465 0.0
Mg31 Mg 0.90718 0.07619 0.76658 0.0
C32 C 0.21156 0.21196 0.75592 0.0
C33 C 0.32134 0.21064 0.61073 0.0
O34 O 0.34025 0.29848 0.63352 0.0
O35 O 0.05129 0.19953 0.64599 0.0
O36 O 0.91031 0.16859 0.69817 0.0
O37 O 0.0264 0.87835 0.70838 0.0
O38 O 0.93626 0.96717 0.7244 0.0
C39 C 0.96489 0.20898 0.65859 0.0
C40 C 0.94209 0.87661 0.73189 0.0
O41 O 0.2196 0.11044 0.61669 0.0
C42 C 0.14718 0.78532 0.11102 0.0
C43 C 0.24642 0.85503 0.0796 0.0
C44 C 0.32818 0.82642 0.08878 0.0
C45 C 0.27379 0.73977 0.12447 0.0
N46 N 0.16275 0.7115 0.13826 0.0
Co47 Co 0.04748 0.57971 0.18427 0.0
N48 N 0.1821 0.57531 0.2111 0.0
C49 C 0.29494 0.6265 0.19137 0.0
C50 C 0.36739 0.60418 0.2161 0.0
C51 C 0.29534 0.53201 0.25348 0.0
C52 C 0.18256 0.51408 0.24919 0.0
N53 N 0.93236 0.44483 0.22954 0.0
C54 C 0.95381 0.39238 0.26529 0.0
C55 C 0.84553 0.295 0.28589 0.0
C56 C 0.75401 0.284 0.26157 0.0
C57 C 0.81087 0.37517 0.22752 0.0
N58 N 0.91543 0.58641 0.15706 0.0
C59 C 0.79603 0.50095 0.16297 0.0
C60 C 0.72635 0.53293 0.14154 0.0
C61 C 0.80706 0.64551 0.12078 0.0
C62 C 0.92238 0.67614 0.13055 0.0
N63 N 0.02467 0.46399 0.14239 0.0
C64 C 0.99954 0.30495 0.08076 0.0
C65 C 0.98939 0.40005 0.06728 0.0
C66 C 1.00319 0.47868 0.09837 0.0
C67 C 0.01304 0.28594 0.12662 0.0
C68 C 0.02587 0.36657 0.15674 0.0
N69 N 0.06527 0.69538 0.22561 0.0
C70 C 0.96568 0.76715 0.26874 0.0
C71 C 0.07506 0.87797 0.26991 0.0
C72 C 0.18098 0.89329 0.25019 0.0
C73 C 0.17417 0.80101 0.22828 0.0
C74 C 0.96297 0.67749 0.24693 0.0
H75 H 0.2561 0.81642 0.21215 0.0
H76 H 0.87616 0.5952 0.24575 0.0
H77 H 1.00047 0.55378 0.08619 0.0
H78 H 0.04084 0.35158 0.19122 0.0
C79 C 0.3307 0.69715 0.1502 0.0
C80 C 0.0375 0.78691 0.11263 0.0
C81 C 0.07457 0.42371 0.27774 0.0
C82 C 0.75303 0.4035 0.19529 0.0
H83 H 0.25873 0.91906 0.05247 0.0
H84 H 0.41786 0.86656 0.07226 0.0
H85 H 0.46072 0.63484 0.20755 0.0
H86 H 0.32084 0.49186 0.27963 0.0
H87 H 0.83382 0.23576 0.31464 0.0
H88 H 0.65765 0.21744 0.268 0.0
H89 H 0.62827 0.48297 0.14268 0.0
H90 H 0.78212 0.69779 0.10113 0.0
H91 H 0.97921 0.41876 0.03218 0.0
H92 H 0.0227 0.21456 0.13868 0.0
H93 H 0.88187 0.74959 0.28422 0.0
H94 H 0.2684 0.97661 0.25095 0.0
C95 C 0.4195 0.10289 0.59234 0.0
C96 C 0.3547 0.01135 0.62711 0.0
C97 C 0.37545 0.92569 0.61939 0.0
C98 C 0.45378 0.97084 0.58138 0.0
N99 N 0.48368 0.07934 0.56457 0.0
Co100 Co 0.61721 0.18684 0.51812 0.0
N101 N 0.60697 0.04864 0.49373 0.0
C102 C 0.55243 0.93826 0.51532 0.0
C103 C 0.55716 0.85964 0.49025 0.0
C104 C 0.62074 0.92467 0.45061 0.0
C105 C 0.65272 0.04072 0.4539 0.0
N106 N 0.75328 0.29228 0.47224 0.0
C107 C 0.78919 0.26492 0.43454 0.0
C108 C 0.88259 0.36762 0.40991 0.0
C109 C 0.91094 0.46131 0.43433 0.0
C110 C 0.83135 0.41118 0.47219 0.0
N111 N 0.62417 0.323 0.54295 0.0
C112 C 0.7175 0.43797 0.53626 0.0
C113 C 0.69414 0.51185 0.55681 0.0
C114 C 0.57932 0.4384 0.57785 0.0
C115 C 0.53859 0.32303 0.56896 0.0
N116 N 0.73349 0.2016 0.56092 0.0
C117 C 0.90066 0.22963 0.62311 0.0
C118 C 0.80524 0.24021 0.63563 0.0
C119 C 0.72291 0.22555 0.60426 0.0
C120 C 0.91438 0.21081 0.57796 0.0
C121 C 0.82937 0.19629 0.54751 0.0
N122 N 0.50314 0.17898 0.47547 0.0
C123 C 0.44462 0.28986 0.4293 0.0
C124 C 0.32987 0.18719 0.42673 0.0
C125 C 0.30546 0.0779 0.44629 0.0
C126 C 0.39354 0.07583 0.47096 0.0
C127 C 0.53009 0.28352 0.45304 0.0
H128 H 0.37143 0.99258 0.48816 0.0
H129 H 0.6157 0.36582 0.45537 0.0
H130 H 0.64933 0.23176 0.61565 0.0
H131 H 0.83997 0.1786 0.51342 0.0
C132 C 0.48861 0.90861 0.55734 0.0
C133 C 0.42396 0.21355 0.58807 0.0
C134 C 0.74615 0.14339 0.4235 0.0
C135 C 0.81301 0.47376 0.50372 0.0
H136 H 0.30001 1.00716 0.65575 0.0
H137 H 0.33692 0.84033 0.63883 0.0
H138 H 0.51878 0.76613 0.49959 0.0
H139 H 0.6454 0.89077 0.42351 0.0
H140 H 0.92381 0.37388 0.3773 0.0
H141 H 0.97749 0.55501 0.42449 0.0
H142 H 0.75132 0.60814 0.55507 0.0
H143 H 0.53263 0.4677 0.59743 0.0
H144 H 0.79036 0.25372 0.67013 0.0
H145 H 0.9857 0.19998 0.56681 0.0
H146 H 0.46675 0.37564 0.41459 0.0
H147 H 0.2166 0.99639 0.44522 0.0
C148 C 0.8602 0.67493 0.78004 0.0
C149 C 0.94251 0.65267 0.76185 0.0
C150 C 0.92304 0.55398 0.78658 0.0
C151 C 0.83021 0.52095 0.8182 0.0
N152 N 0.7886 0.59165 0.81478 0.0
Co153 Co 0.65627 0.57635 0.85449 0.0
N154 N 0.66068 0.46406 0.90053 0.0
C155 C 0.72382 0.41419 0.89563 0.0
C156 C 0.71212 0.34259 0.93304 0.0
C157 C 0.6332 0.34365 0.96307 0.0
C158 C 0.59961 0.41468 0.94182 0.0
N159 N 0.52605 0.56371 0.89429 0.0
C160 C 0.48519 0.51347 0.93746 0.0
C161 C 0.40482 0.53934 0.9546 0.0
C162 C 0.38599 0.59717 0.91959 0.0
C163 C 0.45894 0.60728 0.88363 0.0
N164 N 0.64991 0.68507 0.80812 0.0
C165 C 0.55687 0.69787 0.80383 0.0
C166 C 0.57219 0.77 0.76599 0.0
C167 C 0.68208 0.80549 0.74536 0.0
C168 C 0.72952 0.75508 0.77255 0.0
N169 N 0.53201 0.44087 0.82319 0.0
C170 C 0.32547 0.28543 0.77833 0.0
C171 C 0.43577 0.36945 0.75366 0.0
C172 C 0.53798 0.44686 0.77678 0.0
C173 C 0.32387 0.2733 0.82548 0.0
C174 C 0.42838 0.34956 0.84702 0.0
N175 N 0.77819 0.71479 0.88532 0.0
C176 C 0.84967 0.90998 0.90794 0.0
C177 C 0.9497 0.91922 0.92681 0.0
C178 C 0.96166 0.82281 0.92499 0.0
C179 C 0.87591 0.72218 0.90348 0.0
C180 C 0.76507 0.80755 0.88816 0.0
H181 H 0.88935 0.65117 0.90134 0.0
H182 H 0.68909 0.80476 0.87494 0.0
H183 H 0.61936 0.516 0.757 0.0
H184 H 0.42171 0.33773 0.88311 0.0
C185 C 0.79678 0.44029 0.85623 0.0
C186 C 0.84814 0.77228 0.76327 0.0
C187 C 0.49677 0.41843 0.95816 0.0
C188 C 0.471 0.66141 0.84019 0.0
H189 H 0.01036 0.70112 0.73395 0.0
H190 H 0.97477 0.51477 0.78331 0.0
H191 H 0.75537 0.29487 0.93787 0.0
H192 H 0.60256 0.29527 0.99635 0.0
H193 H 0.35812 0.51227 0.98802 0.0
H194 H 0.3252 0.62675 0.92018 0.0
H195 H 0.51315 0.79765 0.75559 0.0
H196 H 0.72147 0.86184 0.71384 0.0
H197 H 0.44135 0.37995 0.71697 0.0
H198 H 0.24152 0.20646 0.84578 0.0
H199 H 0.83533 0.98114 0.90898 0.0
H200 H 0.03787 0.82614 0.93912 0.0
loop_
_geom_bond_atom_site_label_1
_geom_bond_atom_site_label_2
_geom_bond_distance
_geom_bond_site_symmetry_2
_ccdc_geom_bond_type
Mg0 O1 2.034 . S
Mg0 O7 1.986 . S
Mg0 O9 2.114 1_554 S
Mg0 O10 2.251 1_554 S
Mg0 O13 2.010 . S
O1 Mg0 2.034 . S
O1 C4 1.246 1_554 S
O2 Mg3 2.028 . S
O2 C4 1.248 . S
Mg3 O2 2.028 . S
Mg3 O8 2.032 1_556 S
Mg3 O10 2.079 . S
C4 O1 1.246 1_556 S
C4 O2 1.248 . S
C5 O6 1.264 . S
C5 O13 1.249 1_565 S
O6 C5 1.264 . S
O7 Mg0 1.986 . S
O7 C11 1.246 . S
O8 Mg3 2.032 1_554 S
O8 C11 1.259 . S
O9 Mg0 2.114 1_556 S
O9 C12 1.252 . S
O10 Mg0 2.251 1_556 S
O10 Mg3 2.079 . S
O10 C12 1.273 . S
C11 O7 1.246 . S
C11 O8 1.259 . S
C12 O9 1.252 . S
C12 O10 1.273 . S
O13 Mg0 2.010 . S
O13 C5 1.249 1_545 S
Mg14 O15 2.028 1_655 S
Mg14 O21 1.986 1_655 S
Mg14 O23 2.114 . S
Mg14 O24 2.251 . S
Mg14 O27 2.010 1_545 S
O15 Mg14 2.028 1_455 S
O15 C18 1.250 . S
O16 Mg17 2.028 . S
O16 C18 1.248 . S
Mg17 O16 2.028 . S
Mg17 O22 2.032 . S
Mg17 O24 2.079 1_455 S
C18 O15 1.250 . S
C18 O16 1.248 . S
C19 O20 1.264 . S
C19 O27 1.249 . S
O20 C19 1.264 . S
O21 Mg14 1.986 1_455 S
O21 C25 1.246 . S
O22 Mg17 2.032 . S
O22 C25 1.259 . S
O23 Mg14 2.114 . S
O23 C26 1.252 . S
O24 Mg14 2.251 . S
O24 Mg17 2.079 1_655 S
O24 C26 1.273 . S
C25 O21 1.246 . S
C25 O22 1.259 . S
C26 O23 1.252 . S
C26 O24 1.273 . S
O27 Mg14 2.010 1_565 S
O27 C19 1.249 . S
Mg28 O29 2.028 . S
Mg28 O35 1.986 . S
Mg28 O37 2.114 1_545 S
Mg28 O38 2.251 1_445 S
Mg28 O41 2.010 . S
O29 Mg28 2.028 . S
O29 C32 1.250 . S
O30 Mg31 2.028 1_455 S
O30 C32 1.248 . S
Mg31 O30 2.028 1_655 S
Mg31 O36 2.032 . S
Mg31 O38 2.079 1_545 S
C32 O29 1.250 . S
C32 O30 1.248 . S
C33 O34 1.264 1_545 S
C33 O41 1.249 . S
O34 C33 1.264 1_565 S
O35 Mg28 1.986 . S
O35 C39 1.246 1_455 S
O36 Mg31 2.032 . S
O36 C39 1.259 . S
O37 Mg28 2.114 1_565 S
O37 C40 1.252 1_455 S
O38 Mg28 2.251 1_665 S
O38 Mg31 2.079 1_565 S
O38 C40 1.273 . S
C39 O35 1.246 1_655 S
C39 O36 1.259 . S
C40 O37 1.252 1_655 S
C40 O38 1.273 . S
O41 Mg28 2.010 . S
O41 C33 1.249 . S
C42 C43 1.443 . S
C42 N46 1.376 . S
C42 C80 1.389 . S
C43 C42 1.443 . S
C43 C44 1.340 . S
C43 H83 0.951 . S
C44 C43 1.340 . S
C44 C45 1.439 . S
C44 H84 0.950 . S
C45 C44 1.439 . S
C45 N46 1.374 . S
C45 C79 1.395 . S
N46 C42 1.376 . S
N46 C45 1.374 . S
N46 Co47 2.008 . S
Co47 N46 2.008 . S
Co47 N48 1.995 . S
Co47 N53 2.008 1_455 S
Co47 N58 1.995 1_455 S
Co47 N63 2.282 . S
Co47 N69 2.282 . S
N48 Co47 1.995 . S
N48 C49 1.376 . S
N48 C52 1.383 . S
C49 N48 1.376 . S
C49 C50 1.446 . S
C49 C79 1.391 . S
C50 C49 1.446 . S
C50 C51 1.339 . S
C50 H85 0.949 . S
C51 C50 1.339 . S
C51 C52 1.439 . S
C51 H86 0.950 . S
C52 N48 1.383 . S
C52 C51 1.439 . S
C52 C81 1.392 . S
N53 Co47 2.008 1_655 S
N53 C54 1.376 . S
N53 C57 1.374 . S
C54 N53 1.376 . S
C54 C55 1.443 . S
C54 C81 1.389 1_655 S
C55 C54 1.443 . S
C55 C56 1.340 . S
C55 H87 0.951 . S
C56 C55 1.340 . S
C56 C57 1.439 . S
C56 H88 0.950 . S
C57 N53 1.374 . S
C57 C56 1.439 . S
C57 C82 1.395 . S
N58 Co47 1.995 1_655 S
N58 C59 1.376 . S
N58 C62 1.383 . S
C59 N58 1.376 . S
C59 C60 1.446 . S
C59 C82 1.391 . S
C60 C59 1.446 . S
C60 C61 1.339 . S
C60 H89 0.949 . S
C61 C60 1.339 . S
C61 C62 1.439 . S
C61 H90 0.950 . S
C62 N58 1.383 . S
C62 C61 1.439 . S
C62 C80 1.392 1_655 S
N63 Co47 2.282 . S
N63 C66 1.332 1_455 S
N63 C68 1.332 . S
C64 C65 1.386 1_455 S
C64 C67 1.388 . S
C65 C64 1.386 1_655 S
C65 C66 1.382 . S
C65 H91 0.950 . S
C66 N63 1.332 1_655 S
C66 C65 1.382 . S
C66 H77 0.952 . S
C67 C64 1.388 . S
C67 C68 1.382 . S
C67 H92 0.950 . S
C68 N63 1.332 . S
C68 C67 1.382 . S
C68 H78 0.948 . S
N69 Co47 2.282 . S
N69 C73 1.332 . S
N69 C74 1.332 1_455 S
C70 C71 1.388 1_655 S
C70 C74 1.382 . S
C70 H93 0.950 . S
C71 C70 1.388 1_455 S
C71 C72 1.386 . S
C72 C71 1.386 . S
C72 C73 1.382 . S
C72 H94 0.950 . S
C73 N69 1.332 . S
C73 C72 1.382 . S
C73 H75 0.952 . S
C74 N69 1.332 1_655 S
C74 C70 1.382 . S
C74 H76 0.948 . S
H75 C73 0.952 . S
H76 C74 0.948 . S
H77 C66 0.952 . S
H78 C68 0.948 . S
C79 C45 1.395 . S
C79 C49 1.391 . S
C80 C42 1.389 . S
C80 C62 1.392 1_455 S
C81 C52 1.392 . S
C81 C54 1.389 1_455 S
C82 C57 1.395 . S
C82 C59 1.391 . S
H83 C43 0.951 . S
H84 C44 0.950 . S
H85 C50 0.949 . S
H86 C51 0.950 . S
H87 C55 0.951 . S
H88 C56 0.950 . S
H89 C60 0.949 . S
H90 C61 0.950 . S
H91 C65 0.950 . S
H92 C67 0.950 . S
H93 C70 0.950 . S
H94 C72 0.950 . S
C95 C96 1.443 1_545 S
C95 N99 1.376 . S
C95 C133 1.389 . S
C96 C95 1.443 1_565 S
C96 C97 1.340 . S
C96 H136 0.951 . S
C97 C96 1.340 . S
C97 C98 1.439 . S
C97 H137 0.950 . S
C98 C97 1.439 . S
C98 N99 1.374 1_565 S
C98 C132 1.395 . S
N99 C95 1.376 . S
N99 C98 1.374 1_545 S
N99 Co100 2.008 . S
Co100 N99 2.008 . S
Co100 N101 1.995 . S
Co100 N106 2.008 . S
Co100 N111 1.995 . S
Co100 N116 2.282 . S
Co100 N122 2.282 . S
N101 Co100 1.995 . S
N101 C102 1.376 1_545 S
N101 C105 1.383 . S
C102 N101 1.376 1_565 S
C102 C103 1.446 . S
C102 C132 1.391 . S
C103 C102 1.446 . S
C103 C104 1.339 . S
C103 H138 0.949 . S
C104 C103 1.339 . S
C104 C105 1.439 1_565 S
C104 H139 0.950 . S
C105 N101 1.383 . S
C105 C104 1.439 1_545 S
C105 C134 1.392 . S
N106 Co100 2.008 . S
N106 C107 1.376 . S
N106 C110 1.374 . S
C107 N106 1.376 . S
C107 C108 1.443 . S
C107 C134 1.389 . S
C108 C107 1.443 . S
C108 C109 1.340 . S
C108 H140 0.951 1_655 S
C109 C108 1.340 . S
C109 C110 1.439 . S
C109 H141 0.950 1_655 S
C110 N106 1.374 . S
C110 C109 1.439 . S
C110 C135 1.395 . S
N111 Co100 1.995 . S
N111 C112 1.376 . S
N111 C115 1.383 . S
C112 N111 1.376 . S
C112 C113 1.446 . S
C112 C135 1.391 . S
C113 C112 1.446 . S
C113 C114 1.339 . S
C113 H142 0.949 . S
C114 C113 1.339 . S
C114 C115 1.439 . S
C114 H143 0.950 . S
C115 N111 1.383 . S
C115 C114 1.439 . S
C115 C133 1.392 . S
N116 Co100 2.282 . S
N116 C119 1.332 . S
N116 C121 1.332 . S
C117 C118 1.386 . S
C117 C120 1.388 . S
C118 C117 1.386 . S
C118 C119 1.382 . S
C118 H144 0.950 . S
C119 N116 1.332 . S
C119 C118 1.382 . S
C119 H130 0.952 . S
C120 C117 1.388 . S
C120 C121 1.382 . S
C120 H145 0.950 1_545 S
C121 N116 1.332 . S
C121 C120 1.382 . S
C121 H131 0.948 1_545 S
N122 Co100 2.282 . S
N122 C126 1.332 . S
N122 C127 1.332 . S
C123 C124 1.388 . S
C123 C127 1.382 . S
C123 H146 0.950 . S
C124 C123 1.388 . S
C124 C125 1.386 . S
C125 C124 1.386 . S
C125 C126 1.382 . S
C125 H147 0.950 . S
C126 N122 1.332 . S
C126 C125 1.382 . S
C126 H128 0.952 . S
C127 N122 1.332 . S
C127 C123 1.382 . S
C127 H129 0.948 . S
H128 C126 0.952 . S
H129 C127 0.948 . S
H130 C119 0.952 . S
H131 C121 0.948 1_565 S
C132 C98 1.395 . S
C132 C102 1.391 . S
C133 C95 1.389 . S
C133 C115 1.392 . S
C134 C105 1.392 . S
C134 C107 1.389 . S
C135 C110 1.395 . S
C135 C112 1.391 . S
H136 C96 0.951 . S
H137 C97 0.950 . S
H138 C103 0.949 . S
H139 C104 0.950 . S
H140 C108 0.951 1_455 S
H141 C109 0.950 1_455 S
H142 C113 0.949 . S
H143 C114 0.950 . S
H144 C118 0.950 . S
H145 C120 0.950 1_565 S
H146 C123 0.950 . S
H147 C125 0.950 . S
C148 C149 1.443 . S
C148 N152 1.376 . S
C148 C186 1.389 . S
C149 C148 1.443 . S
C149 C150 1.340 . S
C149 H189 0.951 1_655 S
C150 C149 1.340 . S
C150 C151 1.439 . S
C150 H190 0.950 1_655 S
C151 C150 1.439 . S
C151 N152 1.374 . S
C151 C185 1.395 . S
N152 C148 1.376 . S
N152 C151 1.374 . S
N152 Co153 2.008 . S
Co153 N152 2.008 . S
Co153 N154 1.995 . S
Co153 N159 2.008 . S
Co153 N164 1.995 . S
Co153 N169 2.282 . S
Co153 N175 2.282 . S
N154 Co153 1.995 . S
N154 C155 1.376 . S
N154 C158 1.383 . S
C155 N154 1.376 . S
C155 C156 1.446 . S
C155 C185 1.391 . S
C156 C155 1.446 . S
C156 C157 1.339 . S
C156 H191 0.949 . S
C157 C156 1.339 . S
C157 C158 1.439 . S
C157 H192 0.950 . S
C158 N154 1.383 . S
C158 C157 1.439 . S
C158 C187 1.392 . S
N159 Co153 2.008 . S
N159 C160 1.376 . S
N159 C163 1.374 . S
C160 N159 1.376 . S
C160 C161 1.443 . S
C160 C187 1.389 . S
C161 C160 1.443 . S
C161 C162 1.340 . S
C161 H193 0.951 . S
C162 C161 1.340 . S
C162 C163 1.439 . S
C162 H194 0.950 . S
C163 N159 1.374 . S
C163 C162 1.439 . S
C163 C188 1.395 . S
N164 Co153 1.995 . S
N164 C165 1.376 . S
N164 C168 1.383 . S
C165 N164 1.376 . S
C165 C166 1.446 . S
C165 C188 1.391 . S
C166 C165 1.446 . S
C166 C167 1.339 . S
C166 H195 0.949 . S
C167 C166 1.339 . S
C167 C168 1.439 . S
C167 H196 0.950 . S
C168 N164 1.383 . S
C168 C167 1.439 . S
C168 C186 1.392 . S
N169 Co153 2.282 . S
N169 C172 1.332 . S
N169 C174 1.332 . S
C170 C171 1.386 . S
C170 C173 1.388 . S
C171 C170 1.386 . S
C171 C172 1.382 . S
C171 H197 0.950 . S
C172 N169 1.332 . S
C172 C171 1.382 . S
C172 H183 0.952 . S
C173 C170 1.388 . S
C173 C174 1.382 . S
C173 H198 0.950 . S
C174 N169 1.332 . S
C174 C173 1.382 . S
C174 H184 0.948 . S
N175 Co153 2.282 . S
N175 C179 1.332 . S
N175 C180 1.332 . S
C176 C177 1.388 . S
C176 C180 1.382 . S
C176 H199 0.950 . S
C177 C176 1.388 . S
C177 C178 1.386 . S
C178 C177 1.386 . S
C178 C179 1.382 . S
C178 H200 0.950 . S
C179 N175 1.332 . S
C179 C178 1.382 . S
C179 H181 0.952 . S
C180 N175 1.332 . S
C180 C176 1.382 . S
C180 H182 0.948 . S
H181 C179 0.952 . S
H182 C180 0.948 . S
H183 C172 0.952 . S
H184 C174 0.948 . S
C185 C151 1.395 . S
C185 C155 1.391 . S
C186 C148 1.389 . S
C186 C168 1.392 . S
C187 C158 1.392 . S
C187 C160 1.389 . S
C188 C163 1.395 . S
C188 C165 1.391 . S
H189 C149 0.951 1_455 S
H190 C150 0.950 1_455 S
H191 C156 0.949 . S
H192 C157 0.950 . S
H193 C161 0.951 . S
H194 C162 0.950 . S
H195 C166 0.949 . S
H196 C167 0.950 . S
H197 C171 0.950 . S
H198 C173 0.950 . S
H199 C176 0.950 . S
H200 C178 0.950 . S
C64 C11 1.448 . S
C26 C134 1.969 . S
C40 C186 1.605 . S
C5 C80 1.951 . S
C124 C18 1.653 . S
C32 C170 1.470 . S
C117 C39 1.343 . S
C4 C177 1.495 1_445 S
C71 C19 1.396 1_455 S
C133 C33 1.891 . S
C187 C12 1.688 . S
C25 C81 1.748 . S
