# Generated by pormake.
# Topology bcu-b, (8,8)-cn, num edge types: 1
# Building blocks:
#     Node 0, Type 0, BuildingBlock: TAGTUT_clean_sbu_3, # of connection points: 8
#     Node 1, Type 1, BuildingBlock: TAGTUT_clean_sbu_1, # of connection points: 8
#     Edge 2, Type (0, 1), BuildingBlock: KIFKEQ_clean_linker_1, # of connection points: 2
#     Edge 3, Type (0, 1), BuildingBlock: KIFKEQ_clean_linker_1, # of connection points: 2
#     Edge 4, Type (0, 1), BuildingBlock: KIFKEQ_clean_linker_1, # of connection points: 2
#     Edge 5, Type (0, 1), BuildingBlock: KIFKEQ_clean_linker_1, # of connection points: 2
#     Edge 6, Type (0, 1), BuildingBlock: KIFKEQ_clean_linker_1, # of connection points: 2
#     Edge 7, Type (0, 1), BuildingBlock: KIFKEQ_clean_linker_1, # of connection points: 2
#     Edge 8, Type (0, 1), BuildingBlock: KIFKEQ_clean_linker_1, # of connection points: 2
#     Edge 9, Type (0, 1), BuildingBlock: KIFKEQ_clean_linker_1, # of connection points: 2
# Relax obj value: 0.017
# Max RMSD: 0.085
# Mean RMSD: 0.075
data_MOF--net-bcu-b--node1-TAGTUT_clean_sbu_3--node2-TAGTUT_clean_sbu_1--edge1-KIFKEQ_clean_linker_1
_symmetry_space_group_name_H-M    P1
_symmetry_Int_Tables_number       1
_symmetry_cell_setting            triclinic
loop_
_symmetry_equiv_pos_as_xyz
'x, y, z'
_cell_length_a     20.000112
_cell_length_b     19.210594
_cell_length_c     21.535899
_cell_angle_alpha  91.403677
_cell_angle_beta   91.237496
_cell_angle_gamma 108.2641
loop_
_atom_site_label
_atom_site_type_symbol
_atom_site_fract_x
_atom_site_fract_y
_atom_site_fract_z
_atom_type_partial_charge
C0 C 0.11584 0.12694 0.08366 0.0
C1 C 0.21294 0.89481 0.05856 0.0
C2 C 0.13432 0.89477 0.87028 0.0
Mg3 Mg 0.97957 0.14937 0.0101 0.0
Mg4 Mg 0.84904 -0.00018 0.9741 0.0
O5 O 0.94379 0.05513 0.95989 0.0
Mg6 Mg 0.01305 0.00658 -0.01128 0.0
O7 O 0.08458 0.96181 0.01853 0.0
Mg8 Mg 0.17201 0.02977 0.98255 0.0
Mg9 Mg 0.06417 0.86267 -0.00584 0.0
C10 C 0.90289 0.88363 0.89887 0.0
O11 O 0.93337 0.92695 0.05005 0.0
O12 O 0.89397 0.184 0.95138 0.0
O13 O 0.95859 0.82225 0.03006 0.0
O14 O 0.90116 0.11385 0.08612 0.0
O15 O 0.80849 0.07679 0.92907 0.0
O16 O 0.82212 0.00386 0.07178 0.0
O17 O 0.09734 0.08198 0.92954 0.0
O18 O 0.06492 0.18309 0.93763 0.0
C19 C 0.10679 0.14941 0.91758 0.0
C20 C 0.83391 0.14669 0.92571 0.0
O21 O 0.96755 0.91977 0.91218 0.0
O22 O 0.23233 0.96192 0.04076 0.0
O23 O 0.85098 0.90014 0.92268 0.0
O24 O 0.17066 0.95561 0.89649 0.0
O25 O 0.15168 0.84976 0.04502 0.0
O26 O 0.08279 0.85056 0.89729 0.0
O27 O 0.05312 0.09606 0.06226 0.0
O28 O 0.16803 0.10745 0.0647 0.0
C29 C 0.85007 0.06179 0.10548 0.0
C30 C 0.91933 0.85716 0.05351 0.0
C31 C 0.38454 0.69742 0.54919 0.0
C32 C 0.45424 0.66916 0.3659 0.0
C33 C 0.37541 0.3778 0.42883 0.0
Mg34 Mg 0.52349 0.683 0.4974 0.0
O35 O 0.47574 0.58325 0.50809 0.0
Mg36 Mg 0.37855 0.54046 0.47095 0.0
Mg37 Mg 0.51453 0.50316 0.48296 0.0
O38 O 0.55235 0.422 0.45891 0.0
Mg39 Mg 0.50339 0.3269 0.48435 0.0
Mg40 Mg 0.65213 0.4661 0.49004 0.0
C41 C 0.6524 0.6291 0.54565 0.0
C42 C 0.62676 0.55987 0.37358 0.0
O43 O 0.35161 0.63593 0.52126 0.0
O44 O 0.45196 0.72478 0.54956 0.0
O45 O 0.40682 0.6115 0.38341 0.0
O46 O 0.50657 0.70422 0.40144 0.0
O47 O 0.62674 0.68159 0.53483 0.0
O48 O 0.61722 0.56152 0.53389 0.0
C49 C 0.39665 0.44208 0.58753 0.0
O50 O 0.45831 0.44459 0.56963 0.0
O51 O 0.35861 0.47356 0.55771 0.0
O52 O 0.6712 0.36266 0.44161 0.0
O53 O 0.56547 0.27456 0.43161 0.0
O54 O 0.63437 0.40641 0.5805 0.0
C55 C 0.63185 0.29832 0.4225 0.0
O56 O 0.53074 0.31897 0.58231 0.0
O57 O 0.39858 0.3264 0.44846 0.0
C58 C 0.58935 0.35623 0.60881 0.0
O59 O 0.41377 0.44539 0.43041 0.0
O60 O 0.5682 0.56102 0.39604 0.0
O61 O 0.6655 0.52691 0.4003 0.0
H62 H 0.03391 0.12812 0.18285 0.0
H63 H 0.2272 0.25012 0.09778 0.0
H64 H 0.06998 0.20574 0.27774 0.0
H65 H 0.26214 0.32849 0.19103 0.0
H66 H 0.32439 0.46299 0.35335 0.0
H67 H 0.23346 0.41766 0.27206 0.0
H68 H 0.18002 0.20072 0.34562 0.0
H69 H 0.27119 0.24546 0.42672 0.0
C70 C 0.08274 0.17328 0.18373 0.0
C71 C 0.12859 0.18286 0.13389 0.0
C72 C 0.10317 0.21754 0.23776 0.0
C73 C 0.16868 0.27296 0.24154 0.0
C74 C 0.21095 0.28678 0.18912 0.0
C75 C 0.19144 0.24154 0.13601 0.0
C76 C 0.29145 0.40626 0.35387 0.0
C77 C 0.30659 0.35709 0.39507 0.0
C78 C 0.23921 0.38052 0.30736 0.0
C79 C 0.20088 0.3056 0.30205 0.0
C80 C 0.20892 0.25881 0.34871 0.0
C81 C 0.26169 0.28432 0.39482 0.0
H82 H 0.71971 0.99091 0.15329 0.0
H83 H 0.91479 0.16427 0.19428 0.0
H84 H 0.66645 0.03401 0.24158 0.0
H85 H 0.8616 0.2099 0.27813 0.0
H86 H 0.76431 0.28681 0.43515 0.0
H87 H 0.816 0.21026 0.37304 0.0
H88 H 0.62172 0.12872 0.2633 0.0
H89 H 0.56914 0.20086 0.32873 0.0
C90 C 0.75151 0.0373 0.18165 0.0
C91 C 0.82098 0.07494 0.16587 0.0
C92 C 0.72081 0.06287 0.23181 0.0
C93 C 0.75886 0.12687 0.26671 0.0
C94 C 0.83005 0.16037 0.25345 0.0
C95 C 0.86069 0.1344 0.20436 0.0
C96 C 0.73272 0.25188 0.39805 0.0
C97 C 0.66308 0.25043 0.38631 0.0
C98 C 0.76231 0.20804 0.36207 0.0
C99 C 0.72375 0.16356 0.31196 0.0
C100 C 0.65319 0.16087 0.30172 0.0
C101 C 0.62308 0.20307 0.33888 0.0
H102 H 0.84408 0.71326 0.03569 0.0
H103 H 0.85544 0.90568 0.14884 0.0
H104 H 0.75515 0.63822 0.10273 0.0
H105 H 0.76705 0.8303 0.21662 0.0
H106 H 0.59132 0.67349 0.32191 0.0
H107 H 0.64556 0.74507 0.23319 0.0
H108 H 0.77541 0.60472 0.20836 0.0
H109 H 0.72109 0.53357 0.29555 0.0
C110 C 0.82682 0.73963 0.07445 0.0
C111 C 0.8575 0.81499 0.0878 0.0
C112 C 0.77586 0.69673 0.11273 0.0
C113 C 0.75512 0.72818 0.16551 0.0
C114 C 0.78173 0.80457 0.1761 0.0
C115 C 0.83251 0.84771 0.13741 0.0
C116 C 0.63038 0.65731 0.29664 0.0
C117 C 0.65235 0.59842 0.31606 0.0
C118 C 0.66168 0.69844 0.24613 0.0
C119 C 0.71468 0.68048 0.2138 0.0
C120 C 0.73403 0.61943 0.23163 0.0
C121 C 0.70337 0.57904 0.28214 0.0
H122 H 0.35733 0.95374 0.08396 0.0
H123 H 0.17488 0.76988 0.12291 0.0
H124 H 0.4311 0.89935 0.14715 0.0
H125 H 0.24652 0.71786 0.18553 0.0
H126 H 0.50075 0.81395 0.33657 0.0
H127 H 0.45311 0.87154 0.25432 0.0
H128 H 0.33207 0.65727 0.17934 0.0
H129 H 0.37683 0.60009 0.26338 0.0
C130 C 0.33297 0.90211 0.10583 0.0
C131 C 0.26019 0.86607 0.0976 0.0
C132 C 0.37514 0.87088 0.14195 0.0
C133 C 0.34516 0.80315 0.1704 0.0
C134 C 0.27233 0.76847 0.16272 0.0
C135 C 0.23081 0.79909 0.12693 0.0
C136 C 0.46531 0.77911 0.30157 0.0
C137 C 0.44131 0.70242 0.30724 0.0
C138 C 0.43805 0.81227 0.25425 0.0
C139 C 0.38701 0.76925 0.21119 0.0
C140 C 0.36936 0.69229 0.21301 0.0
C141 C 0.39545 0.65931 0.26088 0.0
H142 H 0.09174 0.75894 0.81212 0.0
H143 H 0.23139 0.97992 0.79344 0.0
H144 H 0.14772 0.71752 0.72576 0.0
H145 H 0.28593 0.93888 0.70589 0.0
H146 H 0.4337 0.81572 0.63015 0.0
H147 H 0.36535 0.86839 0.69797 0.0
H148 H 0.17263 0.71837 0.61737 0.0
H149 H 0.24107 0.6642 0.55062 0.0
C150 C 0.1332 0.79904 0.78864 0.0
C151 C 0.15801 0.87242 0.81051 0.0
C152 C 0.16521 0.77534 0.73885 0.0
C153 C 0.22227 0.82466 0.70952 0.0
C154 C 0.24338 0.8991 0.72846 0.0
C155 C 0.21174 0.92269 0.77844 0.0
C156 C 0.37677 0.79448 0.62628 0.0
C157 C 0.34303 0.73517 0.58534 0.0
C158 C 0.33742 0.82506 0.66496 0.0
C159 C 0.26334 0.79742 0.66339 0.0
C160 C 0.22956 0.74019 0.62054 0.0
C161 C 0.26891 0.70935 0.58206 0.0
H162 H 0.16934 0.29634 0.92031 0.0
H163 H 0.17844 0.09628 0.83006 0.0
H164 H 0.2526 0.36813 0.84773 0.0
H165 H 0.26185 0.16908 0.75605 0.0
H166 H 0.28239 0.45029 0.64916 0.0
H167 H 0.22572 0.37897 0.73529 0.0
H168 H 0.38372 0.26895 0.73958 0.0
H169 H 0.44154 0.34161 0.65244 0.0
C170 C 0.18978 0.26765 0.88527 0.0
C171 C 0.16614 0.19072 0.87987 0.0
C172 C 0.23756 0.30885 0.84379 0.0
C173 C 0.2625 0.27419 0.79555 0.0
C174 C 0.24335 0.19714 0.79288 0.0
C175 C 0.1955 0.15556 0.83498 0.0
C176 C 0.3057 0.41134 0.66835 0.0
C177 C 0.36644 0.40129 0.64324 0.0
C178 C 0.27331 0.3707 0.71815 0.0
C179 C 0.30042 0.31855 0.74431 0.0
C180 C 0.36158 0.30863 0.72003 0.0
C181 C 0.39475 0.35032 0.67028 0.0
H182 H 0.84402 0.29352 0.92606 0.0
H183 H 0.72731 0.08246 0.8423 0.0
H184 H 0.77279 0.35076 0.86406 0.0
H185 H 0.6592 0.13906 0.77917 0.0
H186 H 0.52134 0.23989 0.68112 0.0
H187 H 0.57223 0.19569 0.77015 0.0
H188 H 0.7608 0.3824 0.76183 0.0
H189 H 0.70894 0.42799 0.67626 0.0
C190 C 0.80346 0.25945 0.89439 0.0
C191 C 0.79172 0.18351 0.88911 0.0
C192 C 0.76253 0.29213 0.85876 0.0
C193 C 0.70966 0.24968 0.81645 0.0
C194 C 0.69777 0.17365 0.81211 0.0
C195 C 0.73779 0.14113 0.84805 0.0
C196 C 0.57283 0.27234 0.69948 0.0
C197 C 0.61154 0.33651 0.67044 0.0
C198 C 0.60248 0.24671 0.75017 0.0
C199 C 0.67172 0.28428 0.77239 0.0
C200 C 0.70755 0.3517 0.74657 0.0
C201 C 0.67772 0.37765 0.69669 0.0
H202 H 0.78529 0.76482 0.88473 0.0
H203 H 0.98505 0.87158 0.80229 0.0
H204 H 0.74904 0.68384 0.79296 0.0
H205 H 0.9482 0.79082 0.70987 0.0
H206 H 0.762 0.75648 0.54944 0.0
H207 H 0.84641 0.80036 0.63604 0.0
H208 H 0.77271 0.58737 0.71707 0.0
H209 H 0.68861 0.54325 0.63012 0.0
C210 C 0.82208 0.76965 0.84765 0.0
C211 C 0.88735 0.82516 0.85009 0.0
C212 C 0.80172 0.72277 0.7954 0.0
C213 C 0.84583 0.7314 0.74429 0.0
C214 C 0.91337 0.78314 0.74872 0.0
C215 C 0.93429 0.82925 0.80158 0.0
C216 C 0.76606 0.71814 0.58429 0.0
C217 C 0.7181 0.64689 0.58364 0.0
C218 C 0.81466 0.74309 0.63373 0.0
C219 C 0.81514 0.69744 0.68361 0.0
C220 C 0.773 0.62363 0.67924 0.0
C221 C 0.72514 0.59833 0.62924 0.0
loop_
_geom_bond_atom_site_label_1
_geom_bond_atom_site_label_2
_geom_bond_distance
_geom_bond_site_symmetry_2
_ccdc_geom_bond_type
C0 O27 1.312 . S
C0 O28 1.208 . S
C1 O22 1.331 . S
C1 O25 1.244 . S
C2 O24 1.264 . S
C2 O26 1.273 . S
Mg3 O5 1.933 1_454 S
Mg3 O12 2.074 1_454 S
Mg3 O14 2.016 1_455 S
Mg3 O18 2.039 1_554 S
Mg3 O27 2.298 . S
Mg4 O5 1.963 . S
Mg4 O15 1.942 . S
Mg4 O16 1.955 1_556 S
Mg4 O23 1.986 1_545 S
O5 Mg3 1.933 1_656 S
O5 Mg4 1.963 . S
O5 Mg6 1.915 1_546 S
Mg6 O5 1.915 1_564 S
Mg6 O7 1.915 1_655 S
Mg6 O11 2.013 . S
Mg6 O17 2.114 1_664 S
Mg6 O21 2.013 1_554 S
Mg6 O27 2.114 1_665 S
O7 Mg6 1.915 1_455 S
O7 Mg8 1.939 . S
O7 Mg9 1.963 . S
Mg8 O7 1.939 . S
Mg8 O17 2.281 1_564 S
Mg8 O22 2.092 . S
Mg8 O24 2.034 1_554 S
Mg8 O28 2.019 1_565 S
Mg9 O7 1.963 . S
Mg9 O13 1.986 1_455 S
Mg9 O25 1.942 . S
Mg9 O26 1.955 1_554 S
C10 O21 1.191 . S
C10 O23 1.307 . S
O11 Mg6 2.013 . S
O11 C30 1.191 . S
O12 Mg3 2.074 1_656 S
O12 C20 1.331 . S
O13 Mg9 1.986 1_655 S
O13 C30 1.307 . S
O14 Mg3 2.016 1_655 S
O14 C29 1.264 . S
O15 Mg4 1.942 . S
O15 C20 1.244 . S
O16 Mg4 1.955 1_554 S
O16 C29 1.273 . S
O17 Mg6 2.114 1_446 S
O17 Mg8 2.281 1_546 S
O17 C19 1.312 . S
O18 Mg3 2.039 1_556 S
O18 C19 1.208 . S
C19 O17 1.312 . S
C19 O18 1.208 . S
C20 O12 1.331 . S
C20 O15 1.244 . S
O21 Mg6 2.013 1_556 S
O21 C10 1.191 . S
O22 C1 1.331 . S
O22 Mg8 2.092 . S
O23 Mg4 1.986 1_565 S
O23 C10 1.307 . S
O24 C2 1.264 . S
O24 Mg8 2.034 1_556 S
O25 C1 1.244 . S
O25 Mg9 1.942 . S
O26 C2 1.273 . S
O26 Mg9 1.955 1_556 S
O27 C0 1.312 . S
O27 Mg3 2.298 . S
O27 Mg6 2.114 1_445 S
O28 C0 1.208 . S
O28 Mg8 2.019 1_545 S
C29 O14 1.264 . S
C29 O16 1.273 . S
C30 O11 1.191 . S
C30 O13 1.307 . S
C31 O43 1.241 . S
C31 O44 1.280 . S
C32 O45 1.277 . S
C32 O46 1.245 . S
C33 O57 1.247 . S
C33 O59 1.289 . S
Mg34 O35 1.926 . S
Mg34 O44 1.984 . S
Mg34 O46 1.988 . S
Mg34 O47 2.061 . S
O35 Mg34 1.926 . S
O35 Mg36 1.986 . S
O35 Mg37 1.917 . S
Mg36 O35 1.986 . S
Mg36 O43 2.042 . S
Mg36 O45 2.041 . S
Mg36 O51 2.038 . S
Mg36 O59 2.238 . S
Mg37 O35 1.917 . S
Mg37 O38 1.917 . S
Mg37 O48 2.106 . S
Mg37 O50 2.079 . S
Mg37 O59 2.106 . S
Mg37 O60 2.079 . S
O38 Mg37 1.917 . S
O38 Mg39 1.926 . S
O38 Mg40 1.986 . S
Mg39 O38 1.926 . S
Mg39 O53 1.984 . S
Mg39 O56 1.988 . S
Mg39 O57 2.061 . S
Mg40 O38 1.986 . S
Mg40 O48 2.238 . S
Mg40 O52 2.042 . S
Mg40 O54 2.041 . S
Mg40 O61 2.038 . S
C41 O47 1.247 . S
C41 O48 1.289 . S
C42 O60 1.245 . S
C42 O61 1.274 . S
O43 C31 1.241 . S
O43 Mg36 2.042 . S
O44 C31 1.280 . S
O44 Mg34 1.984 . S
O45 C32 1.277 . S
O45 Mg36 2.041 . S
O46 C32 1.245 . S
O46 Mg34 1.988 . S
O47 Mg34 2.061 . S
O47 C41 1.247 . S
O48 Mg37 2.106 . S
O48 Mg40 2.238 . S
O48 C41 1.289 . S
C49 O50 1.245 . S
C49 O51 1.274 . S
O50 Mg37 2.079 . S
O50 C49 1.245 . S
O51 Mg36 2.038 . S
O51 C49 1.274 . S
O52 Mg40 2.042 . S
O52 C55 1.241 . S
O53 Mg39 1.984 . S
O53 C55 1.280 . S
O54 Mg40 2.041 . S
O54 C58 1.277 . S
C55 O52 1.241 . S
C55 O53 1.280 . S
O56 Mg39 1.988 . S
O56 C58 1.245 . S
O57 C33 1.247 . S
O57 Mg39 2.061 . S
C58 O54 1.277 . S
C58 O56 1.245 . S
O59 C33 1.289 . S
O59 Mg36 2.238 . S
O59 Mg37 2.106 . S
O60 Mg37 2.079 . S
O60 C42 1.245 . S
O61 Mg40 2.038 . S
O61 C42 1.274 . S
H62 C70 0.950 . S
H63 C75 0.950 . S
H64 C72 0.950 . S
H65 C74 0.950 . S
H66 C76 0.950 . S
H67 C78 0.950 . S
H68 C80 0.950 . S
H69 C81 0.950 . S
C70 H62 0.950 . S
C70 C71 1.386 . S
C70 C72 1.391 . S
C71 C70 1.386 . S
C71 C75 1.393 . S
C72 H64 0.950 . S
C72 C70 1.391 . S
C72 C73 1.400 . S
C73 C72 1.400 . S
C73 C74 1.398 . S
C73 C79 1.491 . S
C74 H65 0.950 . S
C74 C73 1.398 . S
C74 C75 1.391 . S
C75 H63 0.950 . S
C75 C71 1.393 . S
C75 C74 1.391 . S
C76 H66 0.950 . S
C76 C77 1.386 . S
C76 C78 1.391 . S
C77 C76 1.386 . S
C77 C81 1.393 . S
C78 H67 0.950 . S
C78 C76 1.391 . S
C78 C79 1.400 . S
C79 C73 1.491 . S
C79 C78 1.400 . S
C79 C80 1.398 . S
C80 H68 0.950 . S
C80 C79 1.398 . S
C80 C81 1.391 . S
C81 H69 0.950 . S
C81 C77 1.393 . S
C81 C80 1.391 . S
H82 C90 0.950 . S
H83 C95 0.950 . S
H84 C92 0.950 . S
H85 C94 0.950 . S
H86 C96 0.950 . S
H87 C98 0.950 . S
H88 C100 0.950 . S
H89 C101 0.950 . S
C90 H82 0.950 . S
C90 C91 1.386 . S
C90 C92 1.391 . S
C91 C90 1.386 . S
C91 C95 1.393 . S
C92 H84 0.950 . S
C92 C90 1.391 . S
C92 C93 1.400 . S
C93 C92 1.400 . S
C93 C94 1.398 . S
C93 C99 1.491 . S
C94 H85 0.950 . S
C94 C93 1.398 . S
C94 C95 1.391 . S
C95 H83 0.950 . S
C95 C91 1.393 . S
C95 C94 1.391 . S
C96 H86 0.950 . S
C96 C97 1.386 . S
C96 C98 1.391 . S
C97 C96 1.386 . S
C97 C101 1.393 . S
C98 H87 0.950 . S
C98 C96 1.391 . S
C98 C99 1.400 . S
C99 C93 1.491 . S
C99 C98 1.400 . S
C99 C100 1.398 . S
C100 H88 0.950 . S
C100 C99 1.398 . S
C100 C101 1.391 . S
C101 H89 0.950 . S
C101 C97 1.393 . S
C101 C100 1.391 . S
H102 C110 0.950 . S
H103 C115 0.950 . S
H104 C112 0.950 . S
H105 C114 0.950 . S
H106 C116 0.950 . S
H107 C118 0.950 . S
H108 C120 0.950 . S
H109 C121 0.950 . S
C110 H102 0.950 . S
C110 C111 1.386 . S
C110 C112 1.391 . S
C111 C110 1.386 . S
C111 C115 1.393 . S
C112 H104 0.950 . S
C112 C110 1.391 . S
C112 C113 1.400 . S
C113 C112 1.400 . S
C113 C114 1.398 . S
C113 C119 1.491 . S
C114 H105 0.950 . S
C114 C113 1.398 . S
C114 C115 1.391 . S
C115 H103 0.950 . S
C115 C111 1.393 . S
C115 C114 1.391 . S
C116 H106 0.950 . S
C116 C117 1.386 . S
C116 C118 1.391 . S
C117 C116 1.386 . S
C117 C121 1.393 . S
C118 H107 0.950 . S
C118 C116 1.391 . S
C118 C119 1.400 . S
C119 C113 1.491 . S
C119 C118 1.400 . S
C119 C120 1.398 . S
C120 H108 0.950 . S
C120 C119 1.398 . S
C120 C121 1.391 . S
C121 H109 0.950 . S
C121 C117 1.393 . S
C121 C120 1.391 . S
H122 C130 0.950 . S
H123 C135 0.950 . S
H124 C132 0.950 . S
H125 C134 0.950 . S
H126 C136 0.950 . S
H127 C138 0.950 . S
H128 C140 0.950 . S
H129 C141 0.950 . S
C130 H122 0.950 . S
C130 C131 1.386 . S
C130 C132 1.391 . S
C131 C130 1.386 . S
C131 C135 1.393 . S
C132 H124 0.950 . S
C132 C130 1.391 . S
C132 C133 1.400 . S
C133 C132 1.400 . S
C133 C134 1.398 . S
C133 C139 1.491 . S
C134 H125 0.950 . S
C134 C133 1.398 . S
C134 C135 1.391 . S
C135 H123 0.950 . S
C135 C131 1.393 . S
C135 C134 1.391 . S
C136 H126 0.950 . S
C136 C137 1.386 . S
C136 C138 1.391 . S
C137 C136 1.386 . S
C137 C141 1.393 . S
C138 H127 0.950 . S
C138 C136 1.391 . S
C138 C139 1.400 . S
C139 C133 1.491 . S
C139 C138 1.400 . S
C139 C140 1.398 . S
C140 H128 0.950 . S
C140 C139 1.398 . S
C140 C141 1.391 . S
C141 H129 0.950 . S
C141 C137 1.393 . S
C141 C140 1.391 . S
H142 C150 0.950 . S
H143 C155 0.950 . S
H144 C152 0.950 . S
H145 C154 0.950 . S
H146 C156 0.950 . S
H147 C158 0.950 . S
H148 C160 0.950 . S
H149 C161 0.950 . S
C150 H142 0.950 . S
C150 C151 1.386 . S
C150 C152 1.391 . S
C151 C150 1.386 . S
C151 C155 1.393 . S
C152 H144 0.950 . S
C152 C150 1.391 . S
C152 C153 1.400 . S
C153 C152 1.400 . S
C153 C154 1.398 . S
C153 C159 1.491 . S
C154 H145 0.950 . S
C154 C153 1.398 . S
C154 C155 1.391 . S
C155 H143 0.950 . S
C155 C151 1.393 . S
C155 C154 1.391 . S
C156 H146 0.950 . S
C156 C157 1.386 . S
C156 C158 1.391 . S
C157 C156 1.386 . S
C157 C161 1.393 . S
C158 H147 0.950 . S
C158 C156 1.391 . S
C158 C159 1.400 . S
C159 C153 1.491 . S
C159 C158 1.400 . S
C159 C160 1.398 . S
C160 H148 0.950 . S
C160 C159 1.398 . S
C160 C161 1.391 . S
C161 H149 0.950 . S
C161 C157 1.393 . S
C161 C160 1.391 . S
H162 C170 0.950 . S
H163 C175 0.950 . S
H164 C172 0.950 . S
H165 C174 0.950 . S
H166 C176 0.950 . S
H167 C178 0.950 . S
H168 C180 0.950 . S
H169 C181 0.950 . S
C170 H162 0.950 . S
C170 C171 1.386 . S
C170 C172 1.391 . S
C171 C170 1.386 . S
C171 C175 1.393 . S
C172 H164 0.950 . S
C172 C170 1.391 . S
C172 C173 1.400 . S
C173 C172 1.400 . S
C173 C174 1.398 . S
C173 C179 1.491 . S
C174 H165 0.950 . S
C174 C173 1.398 . S
C174 C175 1.391 . S
C175 H163 0.950 . S
C175 C171 1.393 . S
C175 C174 1.391 . S
C176 H166 0.950 . S
C176 C177 1.386 . S
C176 C178 1.391 . S
C177 C176 1.386 . S
C177 C181 1.393 . S
C178 H167 0.950 . S
C178 C176 1.391 . S
C178 C179 1.400 . S
C179 C173 1.491 . S
C179 C178 1.400 . S
C179 C180 1.398 . S
C180 H168 0.950 . S
C180 C179 1.398 . S
C180 C181 1.391 . S
C181 H169 0.950 . S
C181 C177 1.393 . S
C181 C180 1.391 . S
H182 C190 0.950 . S
H183 C195 0.950 . S
H184 C192 0.950 . S
H185 C194 0.950 . S
H186 C196 0.950 . S
H187 C198 0.950 . S
H188 C200 0.950 . S
H189 C201 0.950 . S
C190 H182 0.950 . S
C190 C191 1.386 . S
C190 C192 1.391 . S
C191 C190 1.386 . S
C191 C195 1.393 . S
C192 H184 0.950 . S
C192 C190 1.391 . S
C192 C193 1.400 . S
C193 C192 1.400 . S
C193 C194 1.398 . S
C193 C199 1.491 . S
C194 H185 0.950 . S
C194 C193 1.398 . S
C194 C195 1.391 . S
C195 H183 0.950 . S
C195 C191 1.393 . S
C195 C194 1.391 . S
C196 H186 0.950 . S
C196 C197 1.386 . S
C196 C198 1.391 . S
C197 C196 1.386 . S
C197 C201 1.393 . S
C198 H187 0.950 . S
C198 C196 1.391 . S
C198 C199 1.400 . S
C199 C193 1.491 . S
C199 C198 1.400 . S
C199 C200 1.398 . S
C200 H188 0.950 . S
C200 C199 1.398 . S
C200 C201 1.391 . S
C201 H189 0.950 . S
C201 C197 1.393 . S
C201 C200 1.391 . S
H202 C210 0.950 . S
H203 C215 0.950 . S
H204 C212 0.950 . S
H205 C214 0.950 . S
H206 C216 0.950 . S
H207 C218 0.950 . S
H208 C220 0.950 . S
H209 C221 0.950 . S
C210 H202 0.950 . S
C210 C211 1.386 . S
C210 C212 1.391 . S
C211 C210 1.386 . S
C211 C215 1.393 . S
C212 H204 0.950 . S
C212 C210 1.391 . S
C212 C213 1.400 . S
C213 C212 1.400 . S
C213 C214 1.398 . S
C213 C219 1.491 . S
C214 H205 0.950 . S
C214 C213 1.398 . S
C214 C215 1.391 . S
C215 H203 0.950 . S
C215 C211 1.393 . S
C215 C214 1.391 . S
C216 H206 0.950 . S
C216 C217 1.386 . S
C216 C218 1.391 . S
C217 C216 1.386 . S
C217 C221 1.393 . S
C218 H207 0.950 . S
C218 C216 1.391 . S
C218 C219 1.400 . S
C219 C213 1.491 . S
C219 C218 1.400 . S
C219 C220 1.398 . S
C220 H208 0.950 . S
C220 C219 1.398 . S
C220 C221 1.391 . S
C221 H209 0.950 . S
C221 C217 1.393 . S
C221 C220 1.391 . S
C71 C0 1.086 . S
C77 C33 1.108 . S
C91 C29 1.659 . S
C97 C55 1.636 . S
C111 C30 1.376 . S
C117 C42 1.367 . S
C131 C1 1.651 . S
C137 C32 1.642 . S
C151 C2 1.657 . S
C157 C31 1.638 . S
C177 C49 1.428 . S
C171 C19 1.418 . S
C191 C20 1.665 . S
C197 C58 1.662 . S
C217 C41 1.033 . S
C211 C10 1.036 . S
