# Generated by pormake.
# Topology nia, (6,6)-cn, num edge types: 1
# Building blocks:
#     Node 0, Type 0, BuildingBlock: MIFKUJ_clean_sbu_0, # of connection points: 6
#     Node 1, Type 0, BuildingBlock: MIFKUJ_clean_sbu_0, # of connection points: 6
#     Node 2, Type 1, BuildingBlock: MIDCAF_clean_sbu_0, # of connection points: 6
#     Node 3, Type 1, BuildingBlock: MIDCAF_clean_sbu_0, # of connection points: 6
#     Edge 4, Type (0, 1), BuildingBlock: OJICUG_clean_linker_0, # of connection points: 2
#     Edge 5, Type (0, 1), BuildingBlock: OJICUG_clean_linker_0, # of connection points: 2
#     Edge 6, Type (0, 1), BuildingBlock: OJICUG_clean_linker_0, # of connection points: 2
#     Edge 7, Type (0, 1), BuildingBlock: OJICUG_clean_linker_0, # of connection points: 2
#     Edge 8, Type (0, 1), BuildingBlock: OJICUG_clean_linker_0, # of connection points: 2
#     Edge 9, Type (0, 1), BuildingBlock: OJICUG_clean_linker_0, # of connection points: 2
#     Edge 10, Type (0, 1), BuildingBlock: OJICUG_clean_linker_0, # of connection points: 2
#     Edge 11, Type (0, 1), BuildingBlock: OJICUG_clean_linker_0, # of connection points: 2
#     Edge 12, Type (0, 1), BuildingBlock: OJICUG_clean_linker_0, # of connection points: 2
#     Edge 13, Type (0, 1), BuildingBlock: OJICUG_clean_linker_0, # of connection points: 2
#     Edge 14, Type (0, 1), BuildingBlock: OJICUG_clean_linker_0, # of connection points: 2
#     Edge 15, Type (0, 1), BuildingBlock: OJICUG_clean_linker_0, # of connection points: 2
# Relax obj value: 0.183
# Max RMSD: 0.254
# Mean RMSD: 0.188
data_MOF--net-nia--node1-MIFKUJ_clean_sbu_0--node2-MIDCAF_clean_sbu_0--edge1-OJICUG_clean_linker_0
_symmetry_space_group_name_H-M    P1
_symmetry_Int_Tables_number       1
_symmetry_cell_setting            triclinic
loop_
_symmetry_equiv_pos_as_xyz
'x, y, z'
_cell_length_a     19.237541
_cell_length_b     19.479829
_cell_length_c     21.217737
_cell_angle_alpha  87.833038
_cell_angle_beta   88.053215
_cell_angle_gamma 126.4128
loop_
_atom_site_label
_atom_site_type_symbol
_atom_site_fract_x
_atom_site_fract_y
_atom_site_fract_z
_atom_type_partial_charge
Zn0 Zn 0.00514 0.90289 0.12088 0.0
Zn1 Zn -0.03097 0.01865 1.04623 0.0
C2 C 0.91972 0.80639 1.00124 0.0
O3 O 0.91038 0.86357 0.97783 0.0
C4 C 0.09618 0.16882 0.10265 0.0
O5 O 0.12513 0.1889 1.0429 0.0
O6 O 0.05385 0.85988 0.17925 0.0
O7 O 0.11167 0.01519 0.08321 0.0
O8 O 0.06171 0.02227 0.9934 0.0
C9 C 0.01394 0.77994 0.19086 0.0
O10 O 0.93655 0.72708 0.17023 0.0
O11 O 0.95353 0.81595 1.05385 0.0
C12 C 0.93744 0.11262 0.94592 0.0
O13 O 0.01177 0.14564 0.91403 0.0
O14 O 0.91675 0.06485 0.99608 0.0
O15 O 0.8625 0.9066 0.08178 0.0
O16 O 0.91156 0.89937 0.17149 0.0
O17 O 0.02562 0.09597 0.11812 0.0
C18 C 0.12401 0.03672 1.02434 0.0
C19 C 0.8507 0.88884 0.141 0.0
Zn20 Zn 0.04693 0.94639 0.54617 0.0
Zn21 Zn 0.92239 -0.02411 0.61693 0.0
C22 C 0.13686 0.0356 0.66745 0.0
O23 O 0.0824 0.05224 0.68465 0.0
C24 C 0.82915 0.92754 0.49528 0.0
O25 O 0.88428 0.00626 0.47052 0.0
O26 O 0.10365 0.90497 0.49492 0.0
O27 O 0.93107 0.83994 0.58098 0.0
O28 O 0.92984 0.8927 0.67035 0.0
C29 C 0.06718 0.83897 0.46347 0.0
O30 O -0.01675 0.79311 0.45805 0.0
O31 O 0.1276 -0.00217 0.61727 0.0
C32 C 0.86486 0.07323 0.64035 0.0
O33 O 0.88634 0.08724 0.57939 0.0
O34 O 0.86951 0.01928 0.6716 0.0
O35 O 0.0313 0.08447 0.5777 0.0
O36 O 0.05548 0.03989 0.49211 0.0
O37 O 0.83695 0.90743 0.55105 0.0
C38 C 0.91169 0.82961 0.64019 0.0
C39 C 0.06068 0.09876 0.52057 0.0
Zn40 Zn 0.33467 0.6352 0.20863 0.0
Zn41 Zn 0.32044 0.61569 0.44428 0.0
Zn42 Zn 0.32579 0.6135 0.32616 0.0
C43 C 0.49142 0.69766 0.41038 0.0
C44 C 0.22155 0.4437 0.41774 0.0
O45 O 0.25127 0.66214 0.29522 0.0
O46 O 0.24493 0.65122 0.19189 0.0
C47 C 0.50235 0.73891 0.23517 0.0
O48 O 0.46137 0.69135 0.35579 0.0
O49 O 0.44041 0.66217 0.45925 0.0
O50 O 0.2349 0.49176 0.46131 0.0
O51 O 0.25448 0.47667 0.36118 0.0
O52 O 0.45694 0.7325 0.19103 0.0
O53 O 0.46504 0.69664 0.28896 0.0
O54 O 0.2641 0.48317 0.29418 0.0
O55 O 0.30649 0.52274 0.193 0.0
C56 C 0.27089 0.46502 0.23762 0.0
O57 O 0.25723 0.66814 0.3596 0.0
O58 O 0.28324 0.689 0.46037 0.0
C59 C 0.22295 0.66761 0.24239 0.0
C60 C 0.25127 0.69641 0.41205 0.0
Zn61 Zn 0.65252 0.29861 0.946 0.0
Zn62 Zn 0.64422 0.31344 0.71208 0.0
Zn63 Zn 0.64657 0.31176 0.82794 0.0
C64 C 0.71579 0.47886 0.73579 0.0
C65 C 0.47432 0.20298 0.75315 0.0
O66 O 0.71474 0.25349 0.85294 0.0
O67 O 0.69217 0.22684 0.95668 0.0
C68 C 0.75413 0.473 0.91092 0.0
O69 O 0.71529 0.44865 0.79117 0.0
O70 O 0.68051 0.42925 0.69208 0.0
O71 O 0.52215 0.22135 0.70384 0.0
O72 O 0.50804 0.23448 0.8056 0.0
O73 O 0.73843 0.4213 0.95662 0.0
O74 O 0.72213 0.44499 0.85737 0.0
O75 O 0.50992 0.23692 0.87186 0.0
O76 O 0.53222 0.24866 0.97355 0.0
C77 C 0.48068 0.2235 0.93018 0.0
O78 O 0.70932 0.25406 0.78721 0.0
O79 O 0.7253 0.28961 0.68495 0.0
C80 C 0.72342 0.22322 0.90485 0.0
C81 C 0.73727 0.25539 0.73061 0.0
C82 C 0.14157 0.80209 0.24093 0.0
C83 C 0.06113 0.74717 0.21489 0.0
H84 H 0.25603 0.81887 0.27111 0.0
C85 C 0.031 0.66302 0.20482 0.0
H86 H 0.16635 0.8672 0.2494 0.0
C87 C 0.08272 0.63622 0.21641 0.0
C88 C 0.16439 0.69228 0.23972 0.0
H89 H -0.03041 0.61921 0.18459 0.0
H90 H 0.0601 0.57247 0.20531 0.0
C91 C 0.1928 0.77467 0.25341 0.0
C92 C 0.26261 0.0357 0.69074 0.0
C93 C 0.21506 0.06807 0.70194 0.0
H94 H 0.38223 0.05292 0.70004 0.0
C95 C 0.24805 0.13695 0.74052 0.0
H96 H 0.2384 -0.01807 0.66202 0.0
C97 C 0.3309 0.17757 0.76251 0.0
C98 C 0.38061 0.14874 0.74688 0.0
H99 H 0.21261 0.163 0.75008 0.0
H100 H 0.35818 0.23454 0.78805 0.0
C101 C 0.34464 0.07584 0.71283 0.0
C102 C 0.23331 0.29595 0.1368 0.0
C103 C 0.14424 0.23265 0.14942 0.0
H104 H 0.3445 0.41811 0.15811 0.0
C105 C 0.10157 0.2376 0.20232 0.0
H106 H 0.26816 0.29317 0.09701 0.0
C107 C 0.14568 0.31023 0.23746 0.0
C108 C 0.23278 0.37745 0.22022 0.0
H109 H 0.03285 0.18916 0.21318 0.0
H110 H 0.1099 0.3172 0.27392 0.0
C111 C 0.27721 0.36719 0.17215 0.0
C112 C 0.87029 0.20323 0.64169 0.0
C113 C 0.84 0.12329 0.67066 0.0
H114 H 0.86337 0.30857 0.63963 0.0
C115 C 0.78303 0.0913 0.72519 0.0
H116 H 0.91535 0.2302 0.60022 0.0
C117 C 0.75223 0.13628 0.74752 0.0
C118 C 0.77984 0.21447 0.71641 0.0
H119 H 0.75887 0.02977 0.74836 0.0
H120 H 0.70381 0.10798 0.7869 0.0
C121 C 0.84084 0.24836 0.66443 0.0
C122 C 0.7307 0.80153 0.22682 0.0
C123 C 0.76688 0.85906 0.17283 0.0
H124 H 0.61666 0.71663 0.28901 0.0
C125 C 0.71964 0.88508 0.14593 0.0
H126 H 0.76604 0.78068 0.24849 0.0
C127 C 0.63597 0.85058 0.16987 0.0
C128 C 0.59685 0.78832 0.22089 0.0
H129 H 0.74652 0.9306 0.10499 0.0
H130 H 0.60033 0.86985 0.14636 0.0
C131 C 0.64567 0.76559 0.25033 0.0
C132 C 0.88119 0.72058 0.7254 0.0
C133 C 0.85688 0.74272 0.671 0.0
H134 H 0.85737 0.61782 0.78745 0.0
C135 C 0.78219 0.67948 0.64276 0.0
H136 H 0.93944 0.76871 0.74739 0.0
C137 C 0.73352 0.59485 0.66723 0.0
C138 C 0.75976 0.57097 0.71952 0.0
H139 H 0.76229 0.69529 0.60091 0.0
H140 H 0.6769 0.54735 0.6434 0.0
C141 C 0.83367 0.63472 0.74887 0.0
C142 C 0.07866 0.73256 0.40982 0.0
C143 C 0.11736 0.80769 0.44208 0.0
H144 H 0.0914 0.63814 0.3747 0.0
C145 C 0.20304 0.84915 0.45902 0.0
H146 H 0.01286 0.69914 0.39602 0.0
C147 C 0.24725 0.81404 0.4471 0.0
C148 C 0.2076 0.73769 0.41692 0.0
H149 H 0.23506 0.90711 0.48385 0.0
H150 H 0.31202 0.84568 0.46275 0.0
C151 C 0.12354 0.6978 0.39735 0.0
C152 C 0.23416 0.07295 0.93647 0.0
C153 C 0.21332 0.08943 0.99537 0.0
H154 H 0.33628 0.09841 0.87153 0.0
C155 C 0.27999 0.15277 1.03002 0.0
H156 H 0.18368 0.02296 0.90959 0.0
C157 C 0.36601 0.19841 1.00681 0.0
C158 C 0.38795 0.18035 0.94906 0.0
H159 H 0.26562 0.16626 0.07573 0.0
H160 H 0.41573 0.24662 1.03517 0.0
C161 C 0.3212 0.11701 0.91411 0.0
C162 C 0.14458 0.21235 0.42939 0.0
C163 C 0.09652 0.18357 0.48835 0.0
H164 H 0.22336 0.31883 0.35999 0.0
C165 C 0.08324 0.23809 0.5187 0.0
H166 H 0.15565 0.17164 0.40471 0.0
C167 C 0.11885 0.31967 0.4925 0.0
C168 C 0.17123 0.35099 0.43576 0.0
H169 H 0.04681 0.2189 0.56399 0.0
H170 H 0.10804 0.35972 0.51854 0.0
C171 C 0.18239 0.29604 0.40342 0.0
C172 C 0.90512 0.20106 0.88144 0.0
C173 C 0.87885 0.13458 0.92747 0.0
H174 H 0.87568 0.28176 0.83788 0.0
C175 C 0.79683 0.09185 0.95987 0.0
H176 H -0.03224 0.23501 0.85557 0.0
C177 C 0.74463 0.11815 0.94951 0.0
C178 C 0.77253 0.18724 0.9061 0.0
H179 H 0.77384 0.03965 0.99508 0.0
H180 H 0.68334 0.08608 0.97712 0.0
C181 C 0.85235 0.22748 0.87103 0.0
C182 C 0.72396 0.89048 0.41212 0.0
C183 C 0.75068 0.86468 0.46295 0.0
H184 H 0.61919 0.85654 0.35481 0.0
C185 C 0.69658 0.77915 0.48758 0.0
H186 H 0.76444 0.95593 0.39192 0.0
C187 C 0.61451 0.72271 0.46603 0.0
C188 C 0.58483 0.75028 0.41912 0.0
H189 H 0.71564 0.75685 0.52604 0.0
H190 H 0.57216 0.6586 0.48872 0.0
C191 C 0.6412 0.83359 0.3905 0.0
C192 C 0.82243 0.69785 0.92521 0.0
C193 C 0.88586 0.72704 0.96933 0.0
H194 H 0.72967 0.59282 0.87186 0.0
C195 C 0.91269 0.67631 0.98669 0.0
H196 H 0.80049 0.73567 0.91097 0.0
C197 C 0.87353 0.59607 0.96357 0.0
C198 C 0.80652 0.56445 0.92263 0.0
H199 H -0.03791 0.69732 1.01996 0.0
H200 H 0.8932 0.55698 0.97996 0.0
C201 C 0.78237 0.61658 0.90245 0.0
loop_
_geom_bond_atom_site_label_1
_geom_bond_atom_site_label_2
_geom_bond_distance
_geom_bond_site_symmetry_2
_ccdc_geom_bond_type
Zn0 O6 1.969 . S
Zn0 O7 1.965 1_565 S
Zn0 O11 2.024 1_454 S
Zn0 O16 1.969 1_455 S
Zn1 O8 1.969 . S
Zn1 O14 1.969 1_455 S
Zn1 O15 1.965 1_446 S
Zn1 O17 2.024 1_556 S
C2 O3 1.229 . S
C2 O11 1.058 . S
O3 C2 1.229 . S
C4 O5 1.229 . S
C4 O17 1.058 . S
O5 C4 1.229 . S
O6 Zn0 1.969 . S
O6 C9 1.267 . S
O7 Zn0 1.965 1_545 S
O7 C18 1.260 1_554 S
O8 Zn1 1.969 . S
O8 C18 1.258 . S
C9 O6 1.267 . S
C9 O10 1.228 . S
O10 C9 1.228 . S
O11 Zn0 2.024 1_656 S
O11 C2 1.058 . S
C12 O13 1.228 . S
C12 O14 1.267 . S
O13 C12 1.228 . S
O14 Zn1 1.969 1_655 S
O14 C12 1.267 . S
O15 Zn1 1.965 1_664 S
O15 C19 1.260 . S
O16 Zn0 1.969 1_655 S
O16 C19 1.258 . S
O17 Zn1 2.024 1_554 S
O17 C4 1.058 . S
C18 O7 1.260 1_556 S
C18 O8 1.258 . S
C19 O15 1.260 . S
C19 O16 1.258 . S
Zn20 O26 1.969 1_545 S
Zn20 O27 1.965 1_545 S
Zn20 O31 2.024 . S
Zn20 O36 1.969 . S
Zn21 O28 1.969 . S
Zn21 O34 1.969 1_565 S
Zn21 O35 1.965 1_665 S
Zn21 O37 2.024 . S
C22 O23 1.229 . S
C22 O31 1.058 . S
O23 C22 1.229 . S
C24 O25 1.229 . S
C24 O37 1.058 . S
O25 C24 1.229 . S
O26 Zn20 1.969 1_565 S
O26 C29 1.267 . S
O27 Zn20 1.965 1_565 S
O27 C38 1.260 1_455 S
O28 Zn21 1.969 . S
O28 C38 1.258 . S
C29 O26 1.267 . S
C29 O30 1.228 . S
O30 C29 1.228 . S
O31 Zn20 2.024 . S
O31 C22 1.058 . S
C32 O33 1.228 . S
C32 O34 1.267 . S
O33 C32 1.228 . S
O34 Zn21 1.969 1_545 S
O34 C32 1.267 . S
O35 Zn21 1.965 1_445 S
O35 C39 1.260 . S
O36 Zn20 1.969 . S
O36 C39 1.258 . S
O37 Zn21 2.024 . S
O37 C24 1.058 . S
C38 O27 1.260 1_655 S
C38 O28 1.258 . S
C39 O35 1.260 . S
C39 O36 1.258 . S
Zn40 O46 1.920 . S
Zn40 O52 1.898 . S
Zn40 O55 1.905 . S
Zn41 O49 1.905 . S
Zn41 O50 1.898 . S
Zn41 O58 1.920 . S
Zn42 O45 2.080 . S
Zn42 O48 2.114 . S
Zn42 O51 2.120 . S
Zn42 O53 2.120 . S
Zn42 O54 2.114 . S
Zn42 O57 2.080 . S
C43 O48 1.166 . S
C43 O49 1.182 . S
C44 O50 1.167 . S
C44 O51 1.299 . S
O45 Zn42 2.080 . S
O45 C59 1.305 . S
O46 Zn40 1.920 . S
O46 C59 1.234 . S
C47 O52 1.167 . S
C47 O53 1.299 . S
O48 Zn42 2.114 . S
O48 C43 1.166 . S
O49 Zn41 1.905 . S
O49 C43 1.182 . S
O50 Zn41 1.898 . S
O50 C44 1.167 . S
O51 Zn42 2.120 . S
O51 C44 1.299 . S
O52 Zn40 1.898 . S
O52 C47 1.167 . S
O53 Zn42 2.120 . S
O53 C47 1.299 . S
O54 Zn42 2.114 . S
O54 C56 1.166 . S
O55 Zn40 1.905 . S
O55 C56 1.182 . S
C56 O54 1.166 . S
C56 O55 1.182 . S
O57 Zn42 2.080 . S
O57 C60 1.305 . S
O58 Zn41 1.920 . S
O58 C60 1.234 . S
C59 O45 1.305 . S
C59 O46 1.234 . S
C60 O57 1.305 . S
C60 O58 1.234 . S
Zn61 O67 1.920 . S
Zn61 O73 1.898 . S
Zn61 O76 1.905 . S
Zn62 O70 1.905 . S
Zn62 O71 1.898 . S
Zn62 O79 1.920 . S
Zn63 O66 2.080 . S
Zn63 O69 2.114 . S
Zn63 O72 2.120 . S
Zn63 O74 2.120 . S
Zn63 O75 2.114 . S
Zn63 O78 2.080 . S
C64 O69 1.166 . S
C64 O70 1.182 . S
C65 O71 1.167 . S
C65 O72 1.299 . S
O66 Zn63 2.080 . S
O66 C80 1.305 . S
O67 Zn61 1.920 . S
O67 C80 1.234 . S
C68 O73 1.167 . S
C68 O74 1.299 . S
O69 Zn63 2.114 . S
O69 C64 1.166 . S
O70 Zn62 1.905 . S
O70 C64 1.182 . S
O71 Zn62 1.898 . S
O71 C65 1.167 . S
O72 Zn63 2.120 . S
O72 C65 1.299 . S
O73 Zn61 1.898 . S
O73 C68 1.167 . S
O74 Zn63 2.120 . S
O74 C68 1.299 . S
O75 Zn63 2.114 . S
O75 C77 1.166 . S
O76 Zn61 1.905 . S
O76 C77 1.182 . S
C77 O75 1.166 . S
C77 O76 1.182 . S
O78 Zn63 2.080 . S
O78 C81 1.305 . S
O79 Zn62 1.920 . S
O79 C81 1.234 . S
C80 O66 1.305 . S
C80 O67 1.234 . S
C81 O78 1.305 . S
C81 O79 1.234 . S
C82 C83 1.387 . S
C82 H86 0.950 . S
C82 C91 1.390 . S
C83 C82 1.387 . S
C83 C85 1.387 . S
H84 C91 0.950 . S
C85 C83 1.387 . S
C85 C87 1.390 . S
C85 H89 0.950 . S
H86 C82 0.950 . S
C87 C85 1.390 . S
C87 C88 1.387 . S
C87 H90 0.950 . S
C88 C87 1.387 . S
C88 C91 1.387 . S
H89 C85 0.950 . S
H90 C87 0.950 . S
C91 C82 1.390 . S
C91 H84 0.950 . S
C91 C88 1.387 . S
C92 C93 1.387 . S
C92 H96 0.944 1_545 S
C92 C101 1.390 . S
C93 C92 1.387 . S
C93 C95 1.387 . S
H94 C101 0.950 . S
C95 C93 1.387 . S
C95 C97 1.390 . S
C95 H99 0.950 . S
H96 C92 0.944 1_565 S
C97 C95 1.390 . S
C97 C98 1.387 . S
C97 H100 0.950 . S
C98 C97 1.387 . S
C98 C101 1.387 . S
H99 C95 0.950 . S
H100 C97 0.950 . S
C101 C92 1.390 . S
C101 H94 0.950 . S
C101 C98 1.387 . S
C102 C103 1.387 . S
C102 H106 0.950 . S
C102 C111 1.390 . S
C103 C102 1.387 . S
C103 C105 1.387 . S
H104 C111 0.950 . S
C105 C103 1.387 . S
C105 C107 1.390 . S
C105 H109 0.950 . S
H106 C102 0.950 . S
C107 C105 1.390 . S
C107 C108 1.387 . S
C107 H110 0.950 . S
C108 C107 1.387 . S
C108 C111 1.387 . S
H109 C105 0.950 . S
H110 C107 0.950 . S
C111 C102 1.390 . S
C111 H104 0.950 . S
C111 C108 1.387 . S
C112 C113 1.387 . S
C112 H116 0.950 . S
C112 C121 1.390 . S
C113 C112 1.387 . S
C113 C115 1.387 . S
H114 C121 0.950 . S
C115 C113 1.387 . S
C115 C117 1.390 . S
C115 H119 0.950 . S
H116 C112 0.950 . S
C117 C115 1.390 . S
C117 C118 1.387 . S
C117 H120 0.950 . S
C118 C117 1.387 . S
C118 C121 1.387 . S
H119 C115 0.950 . S
H120 C117 0.950 . S
C121 C112 1.390 . S
C121 H114 0.950 . S
C121 C118 1.387 . S
C122 C123 1.387 . S
C122 H126 0.950 . S
C122 C131 1.390 . S
C123 C122 1.387 . S
C123 C125 1.387 . S
H124 C131 0.950 . S
C125 C123 1.387 . S
C125 C127 1.390 . S
C125 H129 0.950 . S
H126 C122 0.950 . S
C127 C125 1.390 . S
C127 C128 1.387 . S
C127 H130 0.950 . S
C128 C127 1.387 . S
C128 C131 1.387 . S
H129 C125 0.950 . S
H130 C127 0.950 . S
C131 C122 1.390 . S
C131 H124 0.950 . S
C131 C128 1.387 . S
C132 C133 1.387 . S
C132 H136 0.950 1_655 S
C132 C141 1.390 . S
C133 C132 1.387 . S
C133 C135 1.387 . S
H134 C141 0.950 . S
C135 C133 1.387 . S
C135 C137 1.390 . S
C135 H139 0.950 . S
H136 C132 0.950 1_455 S
C137 C135 1.390 . S
C137 C138 1.387 . S
C137 H140 0.950 . S
C138 C137 1.387 . S
C138 C141 1.387 . S
H139 C135 0.950 . S
H140 C137 0.950 . S
C141 C132 1.390 . S
C141 H134 0.950 . S
C141 C138 1.387 . S
C142 C143 1.387 . S
C142 H146 0.950 . S
C142 C151 1.390 . S
C143 C142 1.387 . S
C143 C145 1.387 . S
H144 C151 0.950 . S
C145 C143 1.387 . S
C145 C147 1.390 . S
C145 H149 0.950 1_565 S
H146 C142 0.950 . S
C147 C145 1.390 . S
C147 C148 1.387 . S
C147 H150 0.950 . S
C148 C147 1.387 . S
C148 C151 1.387 . S
H149 C145 0.950 1_545 S
H150 C147 0.950 . S
C151 C142 1.390 . S
C151 H144 0.950 . S
C151 C148 1.387 . S
C152 C153 1.387 . S
C152 H156 0.950 . S
C152 C161 1.390 . S
C153 C152 1.387 . S
C153 C155 1.387 . S
H154 C161 0.950 . S
C155 C153 1.387 . S
C155 C157 1.390 . S
C155 H159 0.950 . S
H156 C152 0.950 . S
C157 C155 1.390 . S
C157 C158 1.387 . S
C157 H160 0.950 . S
C158 C157 1.387 . S
C158 C161 1.387 . S
H159 C155 0.950 . S
H160 C157 0.950 . S
C161 C152 1.390 . S
C161 H154 0.950 . S
C161 C158 1.387 . S
C162 C163 1.387 . S
C162 H166 0.950 . S
C162 C171 1.390 . S
C163 C162 1.387 . S
C163 C165 1.387 . S
H164 C171 0.950 . S
C165 C163 1.387 . S
C165 C167 1.390 . S
C165 H169 0.950 . S
H166 C162 0.950 . S
C167 C165 1.390 . S
C167 C168 1.387 . S
C167 H170 0.950 . S
C168 C167 1.387 . S
C168 C171 1.387 . S
H169 C165 0.950 . S
H170 C167 0.950 . S
C171 C162 1.390 . S
C171 H164 0.950 . S
C171 C168 1.387 . S
C172 C173 1.387 . S
C172 H176 0.950 . S
C172 C181 1.390 . S
C173 C172 1.387 . S
C173 C175 1.387 . S
H174 C181 0.950 . S
C175 C173 1.387 . S
C175 C177 1.390 . S
C175 H179 0.950 . S
H176 C172 0.950 . S
C177 C175 1.390 . S
C177 C178 1.387 . S
C177 H180 0.950 . S
C178 C177 1.387 . S
C178 C181 1.387 . S
H179 C175 0.950 . S
H180 C177 0.950 . S
C181 C172 1.390 . S
C181 H174 0.950 . S
C181 C178 1.387 . S
C182 C183 1.387 . S
C182 H186 0.950 . S
C182 C191 1.390 . S
C183 C182 1.387 . S
C183 C185 1.387 . S
H184 C191 0.950 . S
C185 C183 1.387 . S
C185 C187 1.390 . S
C185 H189 0.950 . S
H186 C182 0.950 . S
C187 C185 1.390 . S
C187 C188 1.387 . S
C187 H190 0.950 . S
C188 C187 1.387 . S
C188 C191 1.387 . S
H189 C185 0.950 . S
H190 C187 0.950 . S
C191 C182 1.390 . S
C191 H184 0.950 . S
C191 C188 1.387 . S
C192 C193 1.387 . S
C192 H196 0.950 . S
C192 C201 1.390 . S
C193 C192 1.387 . S
C193 C195 1.387 . S
H194 C201 0.950 . S
C195 C193 1.387 . S
C195 C197 1.390 . S
C195 H199 0.950 1_655 S
H196 C192 0.950 . S
C197 C195 1.390 . S
C197 C198 1.387 . S
C197 H200 0.950 . S
C198 C197 1.387 . S
C198 C201 1.387 . S
H199 C195 0.950 1_455 S
H200 C197 0.950 . S
C201 C192 1.390 . S
C201 H194 0.950 . S
C201 C198 1.387 . S
C83 C9 1.441 . S
C88 C59 1.345 . S
C93 C22 1.279 . S
C98 C65 1.165 . S
C103 C4 1.402 . S
C108 C56 1.245 . S
C113 C32 1.616 . S
C118 C81 1.462 . S
C123 C19 1.859 . S
C128 C47 1.689 . S
C138 C64 1.652 . S
C133 C38 1.742 . S
C143 C29 1.441 . S
C148 C60 1.345 . S
C158 C77 1.652 . S
C153 C18 1.742 . S
C168 C44 1.688 . S
C163 C39 1.859 . S
C178 C80 1.465 . S
C173 C12 1.615 . S
C188 C43 1.251 . S
C183 C24 1.400 . S
C198 C68 1.170 . S
C193 C2 1.276 . S
