# Generated by pormake.
# Topology nia, (6,6)-cn, num edge types: 1
# Building blocks:
#     Node 0, Type 0, BuildingBlock: PAMTUU_clean_sbu_0, # of connection points: 6
#     Node 1, Type 0, BuildingBlock: PAMTUU_clean_sbu_0, # of connection points: 6
#     Node 2, Type 1, BuildingBlock: MIDCAF_clean_sbu_0, # of connection points: 6
#     Node 3, Type 1, BuildingBlock: MIDCAF_clean_sbu_0, # of connection points: 6
#     Edge 4, Type (0, 1), BuildingBlock: OJICUG_clean_linker_0, # of connection points: 2
#     Edge 5, Type (0, 1), BuildingBlock: OJICUG_clean_linker_0, # of connection points: 2
#     Edge 6, Type (0, 1), BuildingBlock: OJICUG_clean_linker_0, # of connection points: 2
#     Edge 7, Type (0, 1), BuildingBlock: OJICUG_clean_linker_0, # of connection points: 2
#     Edge 8, Type (0, 1), BuildingBlock: OJICUG_clean_linker_0, # of connection points: 2
#     Edge 9, Type (0, 1), BuildingBlock: OJICUG_clean_linker_0, # of connection points: 2
#     Edge 10, Type (0, 1), BuildingBlock: OJICUG_clean_linker_0, # of connection points: 2
#     Edge 11, Type (0, 1), BuildingBlock: OJICUG_clean_linker_0, # of connection points: 2
#     Edge 12, Type (0, 1), BuildingBlock: OJICUG_clean_linker_0, # of connection points: 2
#     Edge 13, Type (0, 1), BuildingBlock: OJICUG_clean_linker_0, # of connection points: 2
#     Edge 14, Type (0, 1), BuildingBlock: OJICUG_clean_linker_0, # of connection points: 2
#     Edge 15, Type (0, 1), BuildingBlock: OJICUG_clean_linker_0, # of connection points: 2
# Relax obj value: 0.354
# Max RMSD: 0.281
# Mean RMSD: 0.258
data_MOF--net-nia--node1-PAMTUU_clean_sbu_0--node2-MIDCAF_clean_sbu_0--edge1-OJICUG_clean_linker_0
_symmetry_space_group_name_H-M    P1
_symmetry_Int_Tables_number       1
_symmetry_cell_setting            triclinic
loop_
_symmetry_equiv_pos_as_xyz
'x, y, z'
_cell_length_a     18.947245
_cell_length_b     22.977432
_cell_length_c     25.778684
_cell_angle_alpha  62.049983
_cell_angle_beta   106.77588
_cell_angle_gamma 129.3468
loop_
_atom_site_label
_atom_site_type_symbol
_atom_site_fract_x
_atom_site_fract_y
_atom_site_fract_z
_atom_type_partial_charge
Tb0 Tb 0.96337 0.91118 1.03627 0.0
Tb1 Tb 0.0983 0.02647 0.11384 0.0
C2 C 0.17383 0.05443 1.00255 0.0
C3 C 0.86825 0.78525 0.9498 0.0
C4 C 0.87162 0.70311 0.89769 0.0
C5 C 0.83281 0.74602 0.86812 0.0
C6 C 0.83025 0.78581 0.89442 0.0
C7 C 0.91221 0.7472 0.97779 0.0
C8 C 0.91297 0.70584 0.95239 0.0
C9 C 0.85896 0.82212 0.97862 0.0
O10 O 0.05661 0.87901 0.07742 0.0
O11 O 0.10336 0.92203 0.1533 0.0
O12 O 0.96017 -0.03755 0.13987 0.0
O13 O 0.8957 0.85083 0.12031 0.0
O14 O 0.20487 0.13707 0.12353 0.0
O15 O 0.1332 0.02474 0.19934 0.0
O16 O 0.04834 0.09278 1.04318 0.0
O17 O 0.92238 -0.01185 1.01598 0.0
O18 O 0.09108 0.00629 0.98544 0.0
O19 O 0.18985 0.06317 1.05254 0.0
C20 C 0.0981 0.88195 0.1274 0.0
O21 O 0.86311 0.79426 1.03584 0.0
O22 O 0.90556 0.90141 0.95519 0.0
C23 C 0.89375 0.88664 0.14693 0.0
C24 C 0.18439 0.14448 0.20592 0.0
C25 C 0.18162 0.23179 0.25276 0.0
C26 C 0.21659 0.18615 0.28562 0.0
C27 C 0.21811 0.14299 0.26226 0.0
C28 C 0.14439 0.18572 0.17445 0.0
C29 C 0.1434 0.2293 0.19753 0.0
C30 C 0.19261 0.10376 0.18039 0.0
C31 C 0.97055 0.06176 1.0152 0.0
H32 H 0.802 0.74695 0.8255 0.0
H33 H 0.79648 0.81528 0.8724 0.0
H34 H 0.94308 0.74672 1.02038 0.0
H35 H 0.94207 0.6726 0.97746 0.0
H36 H 0.24525 0.18579 0.32862 0.0
H37 H 0.24766 0.11007 0.28761 0.0
H38 H 0.11655 0.18644 0.13123 0.0
H39 H 0.11692 0.26444 0.17063 0.0
Tb40 Tb 0.10353 -0.00972 0.52866 0.0
Tb41 Tb 0.96728 0.95442 0.61267 0.0
C42 C 0.09347 0.12709 0.51522 0.0
C43 C 0.22224 -0.00913 0.43275 0.0
C44 C 0.23986 0.91694 0.38042 0.0
C45 C 0.31602 -0.0275 0.40435 0.0
C46 C 0.30721 0.00916 0.42999 0.0
C47 C 0.14634 0.93817 0.40701 0.0
C48 C 0.15521 0.90171 0.38074 0.0
C49 C 0.21501 0.02397 0.46613 0.0
O50 O 0.16728 -0.008 0.61415 0.0
O51 O 0.10403 0.03262 0.6401 0.0
O52 O 0.97459 0.85066 0.65124 0.0
O53 O 0.01169 0.85902 0.5693 0.0
O54 O 0.92788 0.91526 0.69768 0.0
O55 O 0.85474 0.94678 0.62143 0.0
O56 O 0.87937 0.88682 0.55693 0.0
O57 O 0.97638 0.95778 0.47942 0.0
O58 O 0.14587 0.10727 0.5176 0.0
O59 O 0.01257 0.0725 0.54092 0.0
C60 C 0.16856 0.02479 0.64513 0.0
O61 O 0.16226 0.04793 0.44565 0.0
O62 O 0.20639 -0.01606 0.52286 0.0
C63 C 0.97747 0.81744 0.6226 0.0
C64 C 0.86366 -0.02693 0.702 0.0
C65 C 0.85372 0.05879 0.74668 0.0
C66 C 0.80538 -0.02662 0.77413 0.0
C67 C 0.80944 0.93103 0.75141 0.0
C68 C 0.91505 0.05837 0.67568 0.0
C69 C 0.90955 0.10081 0.6975 0.0
C70 C 0.86436 0.92669 0.67812 0.0
C71 C 0.89383 0.90514 0.50278 0.0
H72 H 0.38185 -0.01536 0.40625 0.0
H73 H 0.36643 0.04959 0.44982 0.0
H74 H 0.08005 0.92352 0.40866 0.0
H75 H 0.0954 0.85998 0.36216 0.0
H76 H 0.76297 0.93886 0.81258 0.0
H77 H 0.76888 0.86511 0.77176 0.0
H78 H 0.9575 0.09189 0.63739 0.0
H79 H 0.94648 0.16622 0.67432 0.0
Zn80 Zn 0.3632 0.66997 0.20999 0.0
Zn81 Zn 0.35778 0.61697 0.42591 0.0
Zn82 Zn 0.38706 0.65791 0.31804 0.0
C83 C 0.552 0.71554 0.40189 0.0
C84 C 0.26618 0.47193 0.42275 0.0
O85 O 0.32181 0.72197 0.26418 0.0
O86 O 0.31355 0.73324 0.17279 0.0
C87 C 0.55215 0.73958 0.24112 0.0
O88 O 0.52918 0.72196 0.34838 0.0
O89 O 0.49106 0.67198 0.44079 0.0
O90 O 0.27376 0.49762 0.45915 0.0
O91 O 0.30555 0.52272 0.37171 0.0
O92 O 0.49397 0.72082 0.20164 0.0
O93 O 0.52839 0.72613 0.28982 0.0
O94 O 0.31219 0.53721 0.31264 0.0
O95 O 0.27787 0.55522 0.21919 0.0
C96 C 0.27397 0.50873 0.27177 0.0
O97 O 0.33097 0.71725 0.32223 0.0
O98 O 0.30821 0.67421 0.41674 0.0
C99 C 0.29877 0.74542 0.21005 0.0
C100 C 0.30536 0.71658 0.36398 0.0
Zn101 Zn 0.70044 0.26827 0.93324 0.0
Zn102 Zn 0.69485 0.31962 0.71928 0.0
Zn103 Zn 0.67839 0.28639 0.82503 0.0
C104 C 0.77331 0.46724 0.7152 0.0
C105 C 0.50703 0.19957 0.75207 0.0
O106 O 0.75031 0.2274 0.87675 0.0
O107 O 0.76367 0.21694 0.96837 0.0
C108 C 0.78012 0.43049 0.87257 0.0
O109 O 0.75713 0.42204 0.77065 0.0
O110 O 0.74368 0.43469 0.67863 0.0
O111 O 0.56395 0.23593 0.71255 0.0
O112 O 0.53401 0.21371 0.79943 0.0
O113 O 0.77377 0.38181 0.92468 0.0
O114 O 0.74855 0.40595 0.82982 0.0
O115 O 0.53577 0.21516 0.85515 0.0
O116 O 0.56865 0.20651 0.94697 0.0
C117 C 0.51085 0.19354 0.90642 0.0
O118 O 0.7402 0.23361 0.81772 0.0
O119 O 0.77627 0.29212 0.72361 0.0
C120 C 0.77891 0.20718 0.92971 0.0
C121 C 0.77621 0.24518 0.77514 0.0
C122 C 0.22623 0.8764 0.18505 0.0
C123 C 0.1457 0.84314 0.15308 0.0
H124 H 0.34213 0.87506 0.22381 0.0
C125 C 0.11583 0.7772 0.1409 0.0
H126 H 0.25223 0.92883 0.19352 0.0
C127 C 0.16546 0.74503 0.16036 0.0
C128 C 0.24622 0.77869 0.19181 0.0
H129 H 0.05444 0.75087 0.11593 0.0
H130 H 0.14103 0.69405 0.15051 0.0
C131 C 0.27698 0.8452 0.20325 0.0
C132 C 0.31246 0.04311 0.69332 0.0
C133 C 0.24704 0.05732 0.68391 0.0
H134 H 0.44554 0.07585 0.72462 0.0
C135 C 0.26122 0.10754 0.7084 0.0
H136 H 0.3033 0.00384 0.6761 0.0
C137 C 0.34307 0.14835 0.73708 0.0
C138 C 0.41127 0.13912 0.74164 0.0
H139 H 0.21164 0.11916 0.70239 0.0
H140 H 0.3558 0.19169 0.75138 0.0
C141 C 0.39359 0.08365 0.72173 0.0
C142 C 0.28003 0.33911 0.29492 0.0
C143 C 0.19547 0.29015 0.27184 0.0
H144 H 0.37078 0.44772 0.31287 0.0
C145 C 0.13066 0.30627 0.259 0.0
H146 H 0.33216 0.32944 0.30443 0.0
C147 C 0.15323 0.37435 0.26395 0.0
C148 C 0.24005 0.42614 0.28302 0.0
H149 H 0.06448 0.26906 0.24187 0.0
H150 H 0.10493 0.38923 0.24966 0.0
C151 C 0.30227 0.40685 0.29999 0.0
C152 C 0.75241 0.06637 0.78441 0.0
C153 C 0.83946 0.10295 0.76558 0.0
H154 H 0.66532 0.08348 0.80345 0.0
C155 C 0.90952 0.18449 0.75938 0.0
H156 H 0.6961 0.0044 0.78878 0.0
C157 C 0.89096 0.22999 0.76709 0.0
C158 C 0.80287 0.19411 0.78282 0.0
H159 H 0.97782 0.21433 0.74612 0.0
H160 H 0.94424 0.29415 0.75812 0.0
C161 C 0.73444 0.11158 0.79288 0.0
C162 C 0.80468 0.88291 0.20612 0.0
C163 C 0.81131 0.84343 0.18108 0.0
H164 H 0.71662 0.88061 0.24549 0.0
C165 C 0.73528 0.76482 0.18462 0.0
H166 H 0.86209 0.94353 0.20433 0.0
C167 C 0.65294 0.72906 0.20864 0.0
C168 C 0.64469 0.77051 0.23021 0.0
H169 H 0.73779 0.73232 0.16626 0.0
H170 H 0.59401 0.67022 0.20775 0.0
C171 C 0.72186 0.84669 0.23047 0.0
C172 C 0.87091 0.68539 0.61073 0.0
C173 C 0.92869 0.72854 0.64713 0.0
H174 H 0.77319 0.56913 0.60447 0.0
C175 C 0.93748 0.68587 0.70615 0.0
H176 H 0.86425 0.71715 0.56476 0.0
C177 C 0.88917 0.60096 0.72811 0.0
C178 C 0.82665 0.55713 0.69276 0.0
H179 H 0.98367 0.71829 0.7346 0.0
H180 H 0.90306 0.57009 0.77184 0.0
C181 C 0.81905 0.60059 0.63352 0.0
C182 C 0.17911 0.78439 0.37786 0.0
C183 C 0.24781 0.86868 0.36213 0.0
H184 H 0.14366 0.66983 0.38958 0.0
C185 C 0.32975 0.90343 0.33721 0.0
H186 H 0.11572 0.75512 0.39796 0.0
C187 C 0.34612 0.85403 0.33375 0.0
C188 C 0.27949 0.76956 0.35267 0.0
H189 H 0.38356 -0.03174 0.32365 0.0
H190 H 0.4127 0.88129 0.31924 0.0
C191 C 0.19506 0.73531 0.37334 0.0
C192 C 0.2547 0.06585 0.93122 0.0
C193 C 0.25466 0.09737 0.9669 0.0
H194 H 0.33693 0.07193 0.88288 0.0
C195 C 0.3368 0.16687 0.97403 0.0
H196 H 0.19226 0.01222 0.92491 0.0
C197 C 0.41796 0.20033 0.9503 0.0
C198 C 0.41998 0.16553 0.91865 0.0
H199 H 0.33924 0.19368 1.00025 0.0
H200 H 0.48055 0.25185 0.9591 0.0
C201 C 0.33718 0.09987 0.90712 0.0
C202 C 0.08961 0.244 0.49312 0.0
C203 C 0.13168 0.21472 0.48675 0.0
H204 H 0.09989 0.34966 0.47731 0.0
C205 C 0.21538 0.27103 0.45585 0.0
H206 H 0.02556 0.20237 0.51697 0.0
C207 C 0.25758 0.35458 0.43373 0.0
C208 C 0.21644 0.38374 0.44083 0.0
H209 H 0.25012 0.25089 0.45019 0.0
H210 H 0.32457 0.39664 0.41352 0.0
C211 C 0.13208 0.32805 0.47061 0.0
C212 C 0.85095 0.07724 0.95206 0.0
C213 C 0.92893 0.10626 0.98713 0.0
H214 H 0.74057 0.08493 0.90826 0.0
C215 C 0.9603 0.17253 0.99947 0.0
H216 H 0.82464 0.02609 0.94177 0.0
C217 C 0.91239 0.20662 0.97928 0.0
C218 C 0.83315 0.17578 0.94585 0.0
H219 H 0.01958 0.19599 1.02659 0.0
H220 H 0.93633 0.25623 0.99071 0.0
C221 C 0.8033 0.11145 0.93197 0.0
C222 C 0.7475 0.77394 0.50529 0.0
C223 C 0.81456 0.85533 0.47169 0.0
H224 H 0.6151 0.66524 0.50843 0.0
C225 C 0.80065 0.88738 0.41108 0.0
H226 H 0.75624 0.74706 0.55193 0.0
C227 C 0.71711 0.84019 0.38592 0.0
C228 C 0.64806 0.76022 0.42102 0.0
H229 H 0.85147 0.95006 0.38419 0.0
H230 H 0.70427 0.86796 0.34049 0.0
C231 C 0.66632 0.72684 0.48021 0.0
C232 C 0.92239 0.62865 0.89131 0.0
C233 C 0.85952 0.64745 0.87609 0.0
H234 H 0.945 0.54286 0.90317 0.0
C235 C 0.77817 0.60304 0.84816 0.0
H236 H 0.98736 0.66337 0.91058 0.0
C237 C 0.75633 0.53644 0.84134 0.0
C238 C 0.81442 0.51233 0.86346 0.0
H239 H 0.7276 0.61499 0.83589 0.0
H240 H 0.69052 0.49959 0.82367 0.0
C241 C 0.89895 0.56036 0.88647 0.0
loop_
_geom_bond_atom_site_label_1
_geom_bond_atom_site_label_2
_geom_bond_distance
_geom_bond_site_symmetry_2
_ccdc_geom_bond_type
Tb0 C9 2.764 . S
Tb0 O10 2.325 1_656 S
Tb0 O13 2.303 1_556 S
Tb0 O17 2.322 1_565 S
Tb0 O18 2.349 1_665 S
Tb0 O21 2.415 . S
Tb0 O22 2.399 . S
Tb1 O11 2.322 1_545 S
Tb1 O12 2.349 1_445 S
Tb1 O14 2.415 . S
Tb1 O15 2.399 . S
Tb1 O16 2.325 . S
Tb1 O19 2.303 1_554 S
Tb1 C30 2.764 . S
C2 O18 1.261 . S
C2 O19 1.257 . S
C3 C6 1.358 . S
C3 C7 1.332 . S
C3 C9 1.504 . S
C4 C5 1.373 . S
C4 C8 1.308 . S
C5 C4 1.373 . S
C5 C6 1.429 . S
C5 H32 0.932 . S
C6 C3 1.358 . S
C6 C5 1.429 . S
C6 H33 0.930 . S
C7 C3 1.332 . S
C7 C8 1.394 . S
C7 H34 0.932 1_556 S
C8 C4 1.308 . S
C8 C7 1.394 . S
C8 H35 0.929 1_556 S
C9 Tb0 2.764 . S
C9 C3 1.504 . S
C9 O21 1.239 . S
C9 O22 1.263 . S
O10 Tb0 2.325 1_454 S
O10 C20 1.236 . S
O11 Tb1 2.322 1_565 S
O11 C20 1.257 . S
O12 Tb1 2.349 1_665 S
O12 C23 1.261 . S
O13 Tb0 2.303 1_554 S
O13 C23 1.257 . S
O14 Tb1 2.415 . S
O14 C30 1.239 . S
O15 Tb1 2.399 . S
O15 C30 1.263 . S
O16 Tb1 2.325 . S
O16 C31 1.236 1_454 S
O17 Tb0 2.322 1_545 S
O17 C31 1.257 . S
O18 Tb0 2.349 1_445 S
O18 C2 1.261 . S
O19 Tb1 2.303 1_556 S
O19 C2 1.257 . S
C20 O10 1.236 . S
C20 O11 1.257 . S
O21 Tb0 2.415 . S
O21 C9 1.239 . S
O22 Tb0 2.399 . S
O22 C9 1.263 . S
C23 O12 1.261 . S
C23 O13 1.257 . S
C24 C27 1.358 . S
C24 C28 1.332 . S
C24 C30 1.504 . S
C25 C26 1.373 . S
C25 C29 1.308 . S
C26 C25 1.373 . S
C26 C27 1.429 . S
C26 H36 0.932 . S
C27 C24 1.358 . S
C27 C26 1.429 . S
C27 H37 0.930 . S
C28 C24 1.332 . S
C28 C29 1.394 . S
C28 H38 0.932 . S
C29 C25 1.308 . S
C29 C28 1.394 . S
C29 H39 0.929 . S
C30 Tb1 2.764 . S
C30 O14 1.239 . S
C30 O15 1.263 . S
C30 C24 1.504 . S
C31 O16 1.236 1_656 S
C31 O17 1.257 . S
H32 C5 0.932 . S
H33 C6 0.930 . S
H34 C7 0.932 1_554 S
H35 C8 0.929 1_554 S
H36 C26 0.932 . S
H37 C27 0.930 . S
H38 C28 0.932 . S
H39 C29 0.929 . S
Tb40 C49 2.753 1_545 S
Tb40 O50 2.328 . S
Tb40 O53 2.303 1_545 S
Tb40 O57 2.329 1_445 S
Tb40 O58 2.362 . S
Tb40 O61 2.402 1_545 S
Tb40 O62 2.392 . S
Tb41 O51 2.322 1_655 S
Tb41 O52 2.349 1_545 S
Tb41 O54 2.415 . S
Tb41 O55 2.399 . S
Tb41 O56 2.325 1_545 S
Tb41 O59 2.303 1_655 S
Tb41 C70 2.764 . S
C42 O58 1.261 . S
C42 O59 1.257 . S
C43 C46 1.358 1_565 S
C43 C47 1.332 . S
C43 C49 1.504 . S
C44 C45 1.373 . S
C44 C48 1.308 . S
C45 C44 1.373 . S
C45 C46 1.429 1_565 S
C45 H72 0.932 1_565 S
C46 C43 1.358 1_545 S
C46 C45 1.429 1_545 S
C46 H73 0.930 . S
C47 C43 1.332 . S
C47 C48 1.394 . S
C47 H74 0.932 . S
C48 C44 1.308 . S
C48 C47 1.394 . S
C48 H75 0.929 . S
C49 Tb40 2.753 1_565 S
C49 C43 1.504 . S
C49 O61 1.239 . S
C49 O62 1.263 1_565 S
O50 Tb40 2.328 . S
O50 C60 1.236 . S
O51 Tb41 2.322 1_455 S
O51 C60 1.257 . S
O52 Tb41 2.349 1_565 S
O52 C63 1.261 . S
O53 Tb40 2.303 1_565 S
O53 C63 1.257 1_455 S
O54 Tb41 2.415 . S
O54 C70 1.239 . S
O55 Tb41 2.399 . S
O55 C70 1.263 . S
O56 Tb41 2.325 1_565 S
O56 C71 1.236 . S
O57 Tb40 2.329 1_665 S
O57 C71 1.257 . S
O58 Tb40 2.362 . S
O58 C42 1.261 . S
O59 Tb41 2.303 1_455 S
O59 C42 1.257 . S
C60 O50 1.236 . S
C60 O51 1.257 . S
O61 Tb40 2.402 1_565 S
O61 C49 1.239 . S
O62 Tb40 2.392 . S
O62 C49 1.263 1_545 S
C63 O52 1.261 . S
C63 O53 1.257 1_655 S
C64 C67 1.358 . S
C64 C68 1.332 . S
C64 C70 1.504 . S
C65 C66 1.373 . S
C65 C69 1.308 . S
C66 C65 1.373 . S
C66 C67 1.429 . S
C66 H76 0.932 . S
C67 C64 1.358 . S
C67 C66 1.429 . S
C67 H77 0.930 1_545 S
C68 C64 1.332 . S
C68 C69 1.394 . S
C68 H78 0.932 . S
C69 C65 1.308 . S
C69 C68 1.394 . S
C69 H79 0.929 . S
C70 Tb41 2.764 . S
C70 O54 1.239 . S
C70 O55 1.263 . S
C70 C64 1.504 . S
C71 O56 1.236 . S
C71 O57 1.257 . S
H72 C45 0.932 1_545 S
H73 C46 0.930 . S
H74 C47 0.932 . S
H75 C48 0.929 . S
H76 C66 0.932 . S
H77 C67 0.930 1_565 S
H78 C68 0.932 . S
H79 C69 0.929 . S
Zn80 O86 1.920 . S
Zn80 O92 1.898 . S
Zn80 O95 1.905 . S
Zn81 O89 1.905 . S
Zn81 O90 1.898 . S
Zn81 O98 1.920 . S
Zn82 O85 2.080 . S
Zn82 O88 2.114 . S
Zn82 O91 2.120 . S
Zn82 O93 2.120 . S
Zn82 O94 2.114 . S
Zn82 O97 2.080 . S
C83 O88 1.166 . S
C83 O89 1.182 . S
C84 O90 1.167 . S
C84 O91 1.299 . S
O85 Zn82 2.080 . S
O85 C99 1.305 . S
O86 Zn80 1.920 . S
O86 C99 1.234 . S
C87 O92 1.167 . S
C87 O93 1.299 . S
O88 Zn82 2.114 . S
O88 C83 1.166 . S
O89 Zn81 1.905 . S
O89 C83 1.182 . S
O90 Zn81 1.898 . S
O90 C84 1.167 . S
O91 Zn82 2.120 . S
O91 C84 1.299 . S
O92 Zn80 1.898 . S
O92 C87 1.167 . S
O93 Zn82 2.120 . S
O93 C87 1.299 . S
O94 Zn82 2.114 . S
O94 C96 1.166 . S
O95 Zn80 1.905 . S
O95 C96 1.182 . S
C96 O94 1.166 . S
C96 O95 1.182 . S
O97 Zn82 2.080 . S
O97 C100 1.305 . S
O98 Zn81 1.920 . S
O98 C100 1.234 . S
C99 O85 1.305 . S
C99 O86 1.234 . S
C100 O97 1.305 . S
C100 O98 1.234 . S
Zn101 O107 1.920 . S
Zn101 O113 1.898 . S
Zn101 O116 1.905 . S
Zn102 O110 1.905 . S
Zn102 O111 1.898 . S
Zn102 O119 1.920 . S
Zn103 O106 2.080 . S
Zn103 O109 2.114 . S
Zn103 O112 2.120 . S
Zn103 O114 2.120 . S
Zn103 O115 2.114 . S
Zn103 O118 2.080 . S
C104 O109 1.166 . S
C104 O110 1.182 . S
C105 O111 1.167 . S
C105 O112 1.299 . S
O106 Zn103 2.080 . S
O106 C120 1.305 . S
O107 Zn101 1.920 . S
O107 C120 1.234 . S
C108 O113 1.167 . S
C108 O114 1.299 . S
O109 Zn103 2.114 . S
O109 C104 1.166 . S
O110 Zn102 1.905 . S
O110 C104 1.182 . S
O111 Zn102 1.898 . S
O111 C105 1.167 . S
O112 Zn103 2.120 . S
O112 C105 1.299 . S
O113 Zn101 1.898 . S
O113 C108 1.167 . S
O114 Zn103 2.120 . S
O114 C108 1.299 . S
O115 Zn103 2.114 . S
O115 C117 1.166 . S
O116 Zn101 1.905 . S
O116 C117 1.182 . S
C117 O115 1.166 . S
C117 O116 1.182 . S
O118 Zn103 2.080 . S
O118 C121 1.305 . S
O119 Zn102 1.920 . S
O119 C121 1.234 . S
C120 O106 1.305 . S
C120 O107 1.234 . S
C121 O118 1.305 . S
C121 O119 1.234 . S
C122 C123 1.387 . S
C122 H126 0.950 . S
C122 C131 1.390 . S
C123 C122 1.387 . S
C123 C125 1.387 . S
H124 C131 0.950 . S
C125 C123 1.387 . S
C125 C127 1.390 . S
C125 H129 0.950 . S
H126 C122 0.950 . S
C127 C125 1.390 . S
C127 C128 1.387 . S
C127 H130 0.950 . S
C128 C127 1.387 . S
C128 C131 1.387 . S
H129 C125 0.950 . S
H130 C127 0.950 . S
C131 C122 1.390 . S
C131 H124 0.950 . S
C131 C128 1.387 . S
C132 C133 1.387 . S
C132 H136 0.950 . S
C132 C141 1.390 . S
C133 C132 1.387 . S
C133 C135 1.387 . S
H134 C141 0.950 . S
C135 C133 1.387 . S
C135 C137 1.390 . S
C135 H139 0.950 . S
H136 C132 0.950 . S
C137 C135 1.390 . S
C137 C138 1.387 . S
C137 H140 0.950 . S
C138 C137 1.387 . S
C138 C141 1.387 . S
H139 C135 0.950 . S
H140 C137 0.950 . S
C141 C132 1.390 . S
C141 H134 0.950 . S
C141 C138 1.387 . S
C142 C143 1.387 . S
C142 H146 0.950 . S
C142 C151 1.390 . S
C143 C142 1.387 . S
C143 C145 1.387 . S
H144 C151 0.950 . S
C145 C143 1.387 . S
C145 C147 1.390 . S
C145 H149 0.950 . S
H146 C142 0.950 . S
C147 C145 1.390 . S
C147 C148 1.387 . S
C147 H150 0.950 . S
C148 C147 1.387 . S
C148 C151 1.387 . S
H149 C145 0.950 . S
H150 C147 0.950 . S
C151 C142 1.390 . S
C151 H144 0.950 . S
C151 C148 1.387 . S
C152 C153 1.387 . S
C152 H156 0.950 . S
C152 C161 1.390 . S
C153 C152 1.387 . S
C153 C155 1.387 . S
H154 C161 0.950 . S
C155 C153 1.387 . S
C155 C157 1.390 . S
C155 H159 0.950 . S
H156 C152 0.950 . S
C157 C155 1.390 . S
C157 C158 1.387 . S
C157 H160 0.950 . S
C158 C157 1.387 . S
C158 C161 1.387 . S
H159 C155 0.950 . S
H160 C157 0.950 . S
C161 C152 1.390 . S
C161 H154 0.950 . S
C161 C158 1.387 . S
C162 C163 1.387 . S
C162 H166 0.950 1_565 S
C162 C171 1.390 . S
C163 C162 1.387 . S
C163 C165 1.387 . S
H164 C171 0.950 1_545 S
C165 C163 1.387 . S
C165 C167 1.390 . S
C165 H169 0.950 . S
H166 C162 0.950 1_545 S
C167 C165 1.390 . S
C167 C168 1.387 . S
C167 H170 0.950 . S
C168 C167 1.387 . S
C168 C171 1.387 . S
H169 C165 0.950 . S
H170 C167 0.950 . S
C171 C162 1.390 . S
C171 H164 0.950 1_565 S
C171 C168 1.387 . S
C172 C173 1.387 . S
C172 H176 0.950 . S
C172 C181 1.390 . S
C173 C172 1.387 . S
C173 C175 1.387 . S
H174 C181 0.950 . S
C175 C173 1.387 . S
C175 C177 1.390 . S
C175 H179 0.950 . S
H176 C172 0.950 . S
C177 C175 1.390 . S
C177 C178 1.387 . S
C177 H180 0.950 . S
C178 C177 1.387 . S
C178 C181 1.387 . S
H179 C175 0.950 . S
H180 C177 0.950 . S
C181 C172 1.390 . S
C181 H174 0.950 . S
C181 C178 1.387 . S
C182 C183 1.387 . S
C182 H186 0.950 . S
C182 C191 1.390 . S
C183 C182 1.387 . S
C183 C185 1.387 . S
H184 C191 0.950 . S
C185 C183 1.387 . S
C185 C187 1.390 . S
C185 H189 0.950 . S
H186 C182 0.950 . S
C187 C185 1.390 . S
C187 C188 1.387 . S
C187 H190 0.950 . S
C188 C187 1.387 . S
C188 C191 1.387 . S
H189 C185 0.950 . S
H190 C187 0.950 . S
C191 C182 1.390 . S
C191 H184 0.950 . S
C191 C188 1.387 . S
C192 C193 1.387 . S
C192 H196 0.950 . S
C192 C201 1.390 . S
C193 C192 1.387 . S
C193 C195 1.387 . S
H194 C201 0.950 . S
C195 C193 1.387 . S
C195 C197 1.390 . S
C195 H199 0.950 . S
H196 C192 0.950 . S
C197 C195 1.390 . S
C197 C198 1.387 . S
C197 H200 0.950 . S
C198 C197 1.387 . S
C198 C201 1.387 . S
H199 C195 0.950 . S
H200 C197 0.950 . S
C201 C192 1.390 . S
C201 H194 0.950 . S
C201 C198 1.387 . S
C202 C203 1.387 . S
C202 H206 0.950 . S
C202 C211 1.390 . S
C203 C202 1.387 . S
C203 C205 1.387 . S
H204 C211 0.950 . S
C205 C203 1.387 . S
C205 C207 1.390 . S
C205 H209 0.950 . S
H206 C202 0.950 . S
C207 C205 1.390 . S
C207 C208 1.387 . S
C207 H210 0.950 . S
C208 C207 1.387 . S
C208 C211 1.387 . S
H209 C205 0.950 . S
H210 C207 0.950 . S
C211 C202 1.390 . S
C211 H204 0.950 . S
C211 C208 1.387 . S
C212 C213 1.387 . S
C212 H216 0.950 . S
C212 C221 1.390 . S
C213 C212 1.387 . S
C213 C215 1.387 . S
H214 C221 0.950 . S
C215 C213 1.387 . S
C215 C217 1.390 . S
C215 H219 0.950 . S
H216 C212 0.950 . S
C217 C215 1.390 . S
C217 C218 1.387 . S
C217 H220 0.950 . S
C218 C217 1.387 . S
C218 C221 1.387 . S
H219 C215 0.950 . S
H220 C217 0.950 . S
C221 C212 1.390 . S
C221 H214 0.950 . S
C221 C218 1.387 . S
C222 C223 1.387 . S
C222 H226 0.950 . S
C222 C231 1.390 . S
C223 C222 1.387 . S
C223 C225 1.387 . S
H224 C231 0.950 . S
C225 C223 1.387 . S
C225 C227 1.390 . S
C225 H229 0.950 1_565 S
H226 C222 0.950 . S
C227 C225 1.390 . S
C227 C228 1.387 . S
C227 H230 0.950 . S
C228 C227 1.387 . S
C228 C231 1.387 . S
H229 C225 0.950 1_545 S
H230 C227 0.950 . S
C231 C222 1.390 . S
C231 H224 0.950 . S
C231 C228 1.387 . S
C232 C233 1.387 . S
C232 H236 0.950 . S
C232 C241 1.390 . S
C233 C232 1.387 . S
C233 C235 1.387 . S
H234 C241 0.950 . S
C235 C233 1.387 . S
C235 C237 1.390 . S
C235 H239 0.950 . S
H236 C232 0.950 . S
C237 C235 1.390 . S
C237 C238 1.387 . S
C237 H240 0.950 . S
C238 C237 1.387 . S
C238 C241 1.387 . S
H239 C235 0.950 . S
H240 C237 0.950 . S
C241 C232 1.390 . S
C241 H234 0.950 . S
C241 C238 1.387 . S
C123 C20 1.978 . S
C128 C99 1.951 . S
C133 C60 1.396 . S
C138 C105 1.283 . S
C143 C25 1.087 . S
C148 C96 0.937 . S
C153 C65 1.530 . S
C158 C121 1.315 . S
C163 C23 2.054 . S
C168 C87 1.973 . S
C178 C104 2.309 . S
C173 C63 2.334 . S
C183 C44 1.316 . S
C188 C100 1.177 . S
C198 C117 1.659 . S
C193 C2 1.695 . S
C208 C84 2.082 . S
C203 C42 2.142 . S
C218 C120 2.215 . S
C213 C31 2.253 . S
C228 C83 1.638 . S
C223 C71 1.770 . S
C238 C108 0.931 . S
C233 C4 1.101 . S
