# Generated by pormake.
# Topology scu, (8,4)-cn, num edge types: 1
# Building blocks:
#     Node 0, Type 0, BuildingBlock: TAGTUT_clean_sbu_3, # of connection points: 8
#     Node 1, Type 1, BuildingBlock: MUDLON_clean_sbu_0, # of connection points: 4
#     Node 2, Type 1, BuildingBlock: MUDLON_clean_sbu_0, # of connection points: 4
#     Edge 3, Type (0, 1), BuildingBlock: CIFDUS_clean_linker_0, # of connection points: 2
#     Edge 4, Type (0, 1), BuildingBlock: CIFDUS_clean_linker_0, # of connection points: 2
#     Edge 5, Type (0, 1), BuildingBlock: CIFDUS_clean_linker_0, # of connection points: 2
#     Edge 6, Type (0, 1), BuildingBlock: CIFDUS_clean_linker_0, # of connection points: 2
#     Edge 7, Type (0, 1), BuildingBlock: CIFDUS_clean_linker_0, # of connection points: 2
#     Edge 8, Type (0, 1), BuildingBlock: CIFDUS_clean_linker_0, # of connection points: 2
#     Edge 9, Type (0, 1), BuildingBlock: CIFDUS_clean_linker_0, # of connection points: 2
#     Edge 10, Type (0, 1), BuildingBlock: CIFDUS_clean_linker_0, # of connection points: 2
# Relax obj value: 0.056
# Max RMSD: 0.128
# Mean RMSD: 0.085
data_MOF--net-scu--node1-TAGTUT_clean_sbu_3--node2-MUDLON_clean_sbu_0--edge1-CIFDUS_clean_linker_0
_symmetry_space_group_name_H-M    P1
_symmetry_Int_Tables_number       1
_symmetry_cell_setting            triclinic
loop_
_symmetry_equiv_pos_as_xyz
'x, y, z'
_cell_length_a     24.308321
_cell_length_b     19.190086
_cell_length_c     18.640259
_cell_angle_alpha  89.227708
_cell_angle_beta   90.996714
_cell_angle_gamma 89.846747
loop_
_atom_site_label
_atom_site_type_symbol
_atom_site_fract_x
_atom_site_fract_y
_atom_site_fract_z
_atom_type_partial_charge
C0 C 0.99356 0.88007 0.10093 0.0
C1 C 0.79207 0.99309 0.07587 0.0
C2 C 0.84296 0.03756 0.85999 0.0
Mg3 Mg 0.10478 0.92634 0.02038 0.0
Mg4 Mg 0.12432 0.09238 0.9959 0.0
O5 O 0.08028 0.01597 0.97171 0.0
Mg6 Mg 1.00122 0.02051 -2e-05 0.0
O7 O 0.92236 0.01598 0.02873 0.0
Mg8 Mg 0.89802 0.92593 0.98372 0.0
Mg9 Mg 0.87754 0.09263 0.00493 0.0
C10 C 0.02405 0.16684 0.91322 0.0
O11 O 0.01023 0.11257 0.08041 0.0
O12 O 0.18536 0.93986 0.95317 0.0
O13 O 0.93066 0.16986 0.05361 0.0
O14 O 0.14807 0.97816 0.11499 0.0
O15 O 0.1948 0.0561 0.93943 0.0
O16 O 0.1447 0.0935 0.10907 0.0
O17 O 0.98091 0.93118 0.92254 0.0
O18 O 0.05864 0.86932 0.92987 0.0
C19 C 0.00994 0.87889 0.90431 0.0
C20 C 0.2111 0.99362 0.92839 0.0
O21 O 0.99203 0.1132 0.91753 0.0
O22 O 0.81783 0.93954 0.05169 0.0
O23 O 0.07114 0.1698 0.94551 0.0
O24 O 0.85361 0.97819 0.88834 0.0
O25 O 0.80804 0.05565 0.06352 0.0
O26 O 0.85543 0.09368 0.89226 0.0
O27 O 0.02168 0.93235 0.08001 0.0
O28 O 0.94486 0.86952 0.07619 0.0
C29 C 0.15755 0.0373 0.14259 0.0
C30 C 0.97809 0.16611 0.08514 0.0
Mg31 Mg 0.01685 0.54378 0.4989 0.0
C32 C 0.02849 0.42092 0.41301 0.0
O33 O 0.07062 0.4208 0.45812 0.0
C34 C 0.93719 0.61127 0.59961 0.0
O35 O 0.93372 0.54698 0.62416 0.0
C36 C 0.04918 0.49473 0.65327 0.0
O37 O 0.05591 0.56106 0.66748 0.0
O38 O 0.03874 0.47629 0.58933 0.0
O39 O 0.99277 0.46951 0.41701 0.0
O40 O 0.07857 0.60319 0.44211 0.0
C41 C 0.08175 0.66886 0.44942 0.0
O42 O 0.06273 0.6967 0.50804 0.0
O43 O 0.96037 0.62197 0.53982 0.0
Mg44 Mg 0.50039 1.00086 0.50105 0.0
C45 C 0.3966 1.00191 0.43377 0.0
O46 O 0.41002 0.06511 0.45385 0.0
C47 C 0.60335 1.00213 0.56989 0.0
O48 O 0.5895 0.06528 0.54803 0.0
C49 C 0.44426 1.00241 0.63242 0.0
O50 O 0.4589 0.93813 0.61825 0.0
O51 O 0.45953 0.05091 0.58979 0.0
O52 O 0.43022 0.95233 0.44834 0.0
O53 O 0.54161 0.05015 0.41093 0.0
C54 C 0.55761 1.00144 0.37024 0.0
O55 O 0.54334 0.93719 0.38646 0.0
O56 O 0.5704 0.95229 0.55589 0.0
H57 H 0.04189 0.16245 0.20734 0.0
H58 H 0.94417 0.30035 0.07163 0.0
H59 H 0.94988 0.39117 0.16144 0.0
H60 H 0.97686 0.42901 0.28236 0.0
H61 H 0.07577 0.29254 0.41786 0.0
H62 H 0.07489 0.20386 0.32513 0.0
C63 C 0.02291 0.21289 0.1969 0.0
C64 C 0.99225 0.22432 0.13324 0.0
C65 C 0.02547 0.26481 0.24951 0.0
C66 C 0.96761 0.28994 0.1206 0.0
C67 C 0.97055 0.34188 0.17209 0.0
C68 C 0.99786 0.37968 0.29164 0.0
C69 C 0.02558 0.36698 0.35717 0.0
C70 C 0.99802 0.32927 0.23759 0.0
C71 C 0.05373 0.3034 0.36793 0.0
C72 C 0.05345 0.25268 0.31485 0.0
H73 H 0.73602 0.09344 0.14659 0.0
H74 H 0.73992 0.87121 0.11243 0.0
H75 H 0.66498 0.8557 0.19684 0.0
H76 H 0.60233 0.9042 0.2847 0.0
H77 H 0.60075 0.12566 0.32273 0.0
H78 H 0.67089 0.14249 0.2314 0.0
C79 C 0.72036 0.04149 0.15697 0.0
C80 C 0.74397 0.98345 0.12313 0.0
C81 C 0.67784 0.03285 0.20631 0.0
C82 C 0.72286 0.91675 0.13766 0.0
C83 C 0.67999 0.90785 0.18601 0.0
C84 C 0.61689 0.95639 0.27281 0.0
C85 C 0.59637 1.01367 0.31084 0.0
C86 C 0.65777 0.96541 0.22131 0.0
C87 C 0.61581 0.08073 0.29442 0.0
C88 C 0.65602 0.09029 0.24234 0.0
H89 H 0.05944 0.90766 0.21659 0.0
H90 H 0.98066 0.74 0.10269 0.0
H91 H 0.01125 0.65695 0.19557 0.0
H92 H 0.04978 0.6346 0.31519 0.0
H93 H 0.11752 0.80371 0.43811 0.0
H94 H 0.1033 0.88339 0.33532 0.0
C95 C 0.04982 0.85272 0.21183 0.0
C96 C 0.01757 0.82981 0.15334 0.0
C97 C 0.06556 0.80568 0.26714 0.0
C98 C 0.00492 0.75875 0.14774 0.0
C99 C 0.02248 0.71131 0.20071 0.0
C100 C 0.06285 0.68846 0.319 0.0
C101 C 0.08506 0.71318 0.38402 0.0
C102 C 0.0514 0.73449 0.26157 0.0
C103 C 0.10062 0.78347 0.38846 0.0
C104 C 0.09204 0.82907 0.32993 0.0
H105 H 0.21024 0.92898 0.20935 0.0
H106 H 0.18036 0.15015 0.22672 0.0
H107 H 0.24795 0.15589 0.3251 0.0
H108 H 0.32243 0.1012 0.39527 0.0
H109 H 0.35749 0.88203 0.3719 0.0
H110 H 0.28016 0.87231 0.28656 0.0
C111 C 0.21778 0.97842 0.23522 0.0
C112 C 0.19076 0.03938 0.2099 0.0
C113 C 0.25797 0.98173 0.28994 0.0
C114 C 0.20094 0.10268 0.24454 0.0
C115 C 0.23971 0.10599 0.30062 0.0
C116 C 0.31303 0.05097 0.37214 0.0
C117 C 0.34624 0.99251 0.38919 0.0
C118 C 0.26968 0.04633 0.32197 0.0
C119 C 0.3329 0.92786 0.35927 0.0
C120 C 0.28878 0.92239 0.31041 0.0
H121 H 0.96465 0.89102 0.76997 0.0
H122 H 1.00239 0.74277 0.93953 0.0
H123 H 0.97329 0.64688 0.86277 0.0
H124 H 0.94797 0.6044 0.74406 0.0
H125 H 0.9213 0.75011 0.56868 0.0
H126 H 0.93408 0.84773 0.65081 0.0
C127 C 0.96543 0.83772 0.79011 0.0
C128 C 0.98552 0.82354 0.86001 0.0
C129 C 0.95083 0.78248 0.74446 0.0
C130 C 0.9872 0.7545 0.88568 0.0
C131 C 0.97061 0.69979 0.84185 0.0
C132 C 0.9435 0.65747 0.72397 0.0
C133 C 0.93335 0.66993 0.65035 0.0
C134 C 0.9538 0.71298 0.7706 0.0
C135 C 0.92884 0.73915 0.62517 0.0
C136 C 0.93654 0.79495 0.67204 0.0
H137 H 0.26584 0.09418 0.8541 0.0
H138 H 0.26489 0.87223 0.89643 0.0
H139 H 0.33985 0.85701 0.81233 0.0
H140 H 0.40146 0.90552 0.72224 0.0
H141 H 0.39995 0.12657 0.67575 0.0
H142 H 0.33009 0.14335 0.7671 0.0
C143 C 0.28219 0.04237 0.84561 0.0
C144 C 0.25938 0.9843 0.88161 0.0
C145 C 0.32467 0.03388 0.79637 0.0
C146 C 0.28133 0.91778 0.86948 0.0
C147 C 0.3242 0.90905 0.82131 0.0
C148 C 0.38629 0.95762 0.73228 0.0
C149 C 0.40583 0.01478 0.69186 0.0
C150 C 0.34555 0.96658 0.78375 0.0
C151 C 0.38564 0.08174 0.70593 0.0
C152 C 0.34559 0.09126 0.75802 0.0
H153 H 0.05724 0.29981 0.92775 0.0
H154 H 0.96272 0.16637 0.78812 0.0
H155 H 0.96155 0.25783 0.6949 0.0
H156 H 0.99609 0.37043 0.64935 0.0
H157 H 0.09065 0.5032 0.78987 0.0
H158 H 0.08401 0.41629 0.88656 0.0
C159 C 0.03563 0.29106 0.87725 0.0
C160 C 0.01075 0.22608 0.86434 0.0
C161 C 0.03636 0.34297 0.82372 0.0
C162 C 0.98208 0.21592 0.79934 0.0
C163 C 0.98205 0.26787 0.74579 0.0
C164 C 0.01544 0.38028 0.70108 0.0
C165 C 0.045 0.44252 0.71202 0.0
C166 C 0.01071 0.33057 0.75661 0.0
C167 C 0.06842 0.45535 0.77987 0.0
C168 C 0.0644 0.40584 0.83516 0.0
H169 H 0.79005 0.92948 0.79674 0.0
H170 H 0.81807 0.1509 0.77422 0.0
H171 H 0.74988 0.15686 0.67639 0.0
H172 H 0.67612 0.10197 0.60718 0.0
H173 H 0.64313 0.88236 0.63518 0.0
H174 H 0.72029 0.87282 0.72115 0.0
C175 C 0.782 0.97901 0.76981 0.0
C176 C 0.80885 0.03992 0.79336 0.0
C177 C 0.74155 0.98241 0.7153 0.0
C178 C 0.79779 0.10342 0.75762 0.0
C179 C 0.75867 0.10685 0.70186 0.0
C180 C 0.68592 0.05169 0.63148 0.0
C181 C 0.65341 0.99301 0.61541 0.0
C182 C 0.72923 0.0471 0.68187 0.0
C183 C 0.66722 0.92834 0.64695 0.0
C184 C 0.71124 0.92297 0.69617 0.0
loop_
_geom_bond_atom_site_label_1
_geom_bond_atom_site_label_2
_geom_bond_distance
_geom_bond_site_symmetry_2
_ccdc_geom_bond_type
C0 O27 1.312 1_655 S
C0 O28 1.208 . S
C1 O22 1.331 . S
C1 O25 1.244 1_565 S
C2 O24 1.264 1_545 S
C2 O26 1.273 . S
Mg3 O5 1.936 1_564 S
Mg3 O12 2.081 1_554 S
Mg3 O14 2.023 . S
Mg3 O18 2.031 1_554 S
Mg3 O27 2.291 . S
Mg4 O5 1.963 . S
Mg4 O15 1.942 . S
Mg4 O16 1.955 1_556 S
Mg4 O23 1.986 . S
O5 Mg3 1.936 1_546 S
O5 Mg4 1.963 . S
O5 Mg6 1.915 1_556 S
Mg6 O5 1.915 1_554 S
Mg6 O7 1.915 1_455 S
Mg6 O11 2.013 . S
Mg6 O17 2.114 1_444 S
Mg6 O21 2.013 1_454 S
Mg6 O27 2.114 1_545 S
O7 Mg6 1.915 1_655 S
O7 Mg8 1.936 1_545 S
O7 Mg9 1.963 . S
Mg8 O7 1.936 1_565 S
Mg8 O17 2.291 1_554 S
Mg8 O22 2.081 . S
Mg8 O24 2.023 1_554 S
Mg8 O28 2.031 . S
Mg9 O7 1.963 . S
Mg9 O13 1.986 . S
Mg9 O25 1.942 . S
Mg9 O26 1.955 1_554 S
C10 O21 1.191 1_455 S
C10 O23 1.307 . S
O11 Mg6 2.013 . S
O11 C30 1.191 1_455 S
O12 Mg3 2.081 1_556 S
O12 C20 1.331 . S
O13 Mg9 1.986 . S
O13 C30 1.307 . S
O14 Mg3 2.023 . S
O14 C29 1.264 1_565 S
O15 Mg4 1.942 . S
O15 C20 1.244 1_545 S
O16 Mg4 1.955 1_554 S
O16 C29 1.273 . S
O17 Mg6 2.114 1_666 S
O17 Mg8 2.291 1_556 S
O17 C19 1.312 1_655 S
O18 Mg3 2.031 1_556 S
O18 C19 1.208 . S
C19 O17 1.312 1_455 S
C19 O18 1.208 . S
C20 O12 1.331 . S
C20 O15 1.244 1_565 S
O21 Mg6 2.013 1_656 S
O21 C10 1.191 1_655 S
O22 C1 1.331 . S
O22 Mg8 2.081 . S
O23 Mg4 1.986 . S
O23 C10 1.307 . S
O24 C2 1.264 1_565 S
O24 Mg8 2.023 1_556 S
O25 C1 1.244 1_545 S
O25 Mg9 1.942 . S
O26 C2 1.273 . S
O26 Mg9 1.955 1_556 S
O27 C0 1.312 1_455 S
O27 Mg3 2.291 . S
O27 Mg6 2.114 1_565 S
O28 C0 1.208 . S
O28 Mg8 2.031 . S
C29 O14 1.264 1_545 S
C29 O16 1.273 . S
C30 O11 1.191 1_655 S
C30 O13 1.307 . S
Mg31 O38 2.141 . S
Mg31 O39 2.048 . S
Mg31 O40 2.048 . S
Mg31 O43 2.141 . S
C32 O33 1.313 . S
C32 O39 1.195 1_455 S
O33 C32 1.313 . S
C34 O35 1.245 . S
C34 O43 1.289 1_455 S
O35 C34 1.245 . S
C36 O37 1.245 . S
C36 O38 1.289 1_455 S
O37 C36 1.245 . S
O38 Mg31 2.141 . S
O38 C36 1.289 1_655 S
O39 Mg31 2.048 . S
O39 C32 1.195 1_655 S
O40 Mg31 2.048 . S
O40 C41 1.195 1_655 S
C41 O40 1.195 1_455 S
C41 O42 1.313 . S
O42 C41 1.313 . S
O43 Mg31 2.141 . S
O43 C34 1.289 1_655 S
Mg44 O51 2.141 . S
Mg44 O52 2.048 . S
Mg44 O53 2.048 . S
Mg44 O56 2.141 . S
C45 O46 1.313 . S
C45 O52 1.195 1_565 S
O46 C45 1.313 . S
C47 O48 1.245 . S
C47 O56 1.289 1_565 S
O48 C47 1.245 . S
C49 O50 1.245 . S
C49 O51 1.289 1_565 S
O50 C49 1.245 . S
O51 Mg44 2.141 . S
O51 C49 1.289 1_545 S
O52 Mg44 2.048 . S
O52 C45 1.195 1_545 S
O53 Mg44 2.048 . S
O53 C54 1.195 1_545 S
C54 O53 1.195 1_565 S
C54 O55 1.313 . S
O55 C54 1.313 . S
O56 Mg44 2.141 . S
O56 C47 1.289 1_545 S
H57 C63 0.930 . S
H58 C66 0.930 . S
H59 C67 0.930 . S
H60 C68 0.930 . S
H61 C71 0.930 1_655 S
H62 C72 0.931 . S
C63 H57 0.930 . S
C63 C64 1.356 . S
C63 C65 1.415 . S
C64 C63 1.356 . S
C64 C66 1.418 1_655 S
C65 C63 1.415 . S
C65 C70 1.425 1_655 S
C65 C72 1.409 . S
C66 H58 0.930 . S
C66 C64 1.418 1_455 S
C66 C67 1.362 . S
C67 H59 0.930 . S
C67 C66 1.362 . S
C67 C70 1.409 . S
C68 H60 0.930 . S
C68 C69 1.355 . S
C68 C70 1.415 . S
C69 C68 1.355 . S
C69 C71 1.420 . S
C70 C65 1.425 1_455 S
C70 C67 1.409 . S
C70 C68 1.415 . S
C71 H61 0.930 1_455 S
C71 C69 1.420 . S
C71 C72 1.362 1_455 S
C72 H62 0.931 . S
C72 C65 1.409 . S
C72 C71 1.362 1_655 S
H73 C79 0.930 . S
H74 C82 0.930 . S
H75 C83 0.930 . S
H76 C84 0.930 . S
H77 C87 0.930 . S
H78 C88 0.930 . S
C79 H73 0.930 . S
C79 C80 1.355 1_545 S
C79 C81 1.415 . S
C80 C79 1.355 1_565 S
C80 C82 1.419 . S
C81 C79 1.415 . S
C81 C86 1.425 1_545 S
C81 C88 1.409 . S
C82 H74 0.930 . S
C82 C80 1.419 . S
C82 C83 1.362 . S
C83 H75 0.930 . S
C83 C82 1.362 . S
C83 C86 1.409 . S
C84 H76 0.930 . S
C84 C85 1.355 1_565 S
C84 C86 1.415 . S
C85 C84 1.355 1_545 S
C85 C87 1.419 . S
C86 C81 1.425 1_565 S
C86 C83 1.409 . S
C86 C84 1.415 . S
C87 H77 0.930 . S
C87 C85 1.419 . S
C87 C88 1.362 . S
C88 H78 0.930 . S
C88 C81 1.409 . S
C88 C87 1.362 . S
H89 C95 0.930 . S
H90 C98 0.930 . S
H91 C99 0.930 . S
H92 C100 0.930 . S
H93 C103 0.930 . S
H94 C104 0.930 . S
C95 H89 0.930 . S
C95 C96 1.355 . S
C95 C97 1.415 . S
C96 C95 1.355 . S
C96 C98 1.419 1_455 S
C97 C95 1.415 . S
C97 C102 1.425 1_455 S
C97 C104 1.409 . S
C98 H90 0.930 . S
C98 C96 1.419 1_655 S
C98 C99 1.362 . S
C99 H91 0.930 . S
C99 C98 1.362 . S
C99 C102 1.409 . S
C100 H92 0.930 . S
C100 C101 1.355 1_655 S
C100 C102 1.415 . S
C101 C100 1.355 1_455 S
C101 C103 1.419 . S
C102 C97 1.425 1_655 S
C102 C99 1.409 . S
C102 C100 1.415 . S
C103 H93 0.930 . S
C103 C101 1.419 . S
C103 C104 1.362 . S
C104 H94 0.930 . S
C104 C97 1.409 . S
C104 C103 1.362 . S
H105 C111 0.930 1_565 S
H106 C114 0.930 . S
H107 C115 0.930 . S
H108 C116 0.930 . S
H109 C119 0.930 . S
H110 C120 0.930 . S
C111 H105 0.930 1_545 S
C111 C112 1.355 . S
C111 C113 1.415 . S
C112 C111 1.355 . S
C112 C114 1.419 . S
C113 C111 1.415 . S
C113 C118 1.425 . S
C113 C120 1.409 1_545 S
C114 H106 0.930 . S
C114 C112 1.419 . S
C114 C115 1.362 . S
C115 H107 0.930 . S
C115 C114 1.362 . S
C115 C118 1.409 . S
C116 H108 0.930 . S
C116 C117 1.355 . S
C116 C118 1.415 . S
C117 C116 1.355 . S
C117 C119 1.419 1_545 S
C118 C113 1.425 . S
C118 C115 1.409 . S
C118 C116 1.415 . S
C119 H109 0.930 . S
C119 C117 1.419 1_565 S
C119 C120 1.362 . S
C120 H110 0.930 . S
C120 C113 1.409 1_565 S
C120 C119 1.362 . S
H121 C127 0.930 . S
H122 C130 0.930 . S
H123 C131 0.930 . S
H124 C132 0.930 . S
H125 C135 0.930 . S
H126 C136 0.930 . S
C127 H121 0.930 . S
C127 C128 1.355 1_455 S
C127 C129 1.415 . S
C128 C127 1.355 1_655 S
C128 C130 1.419 . S
C129 C127 1.415 . S
C129 C134 1.425 1_455 S
C129 C136 1.409 . S
C130 H122 0.930 . S
C130 C128 1.419 . S
C130 C131 1.362 . S
C131 H123 0.930 . S
C131 C130 1.362 . S
C131 C134 1.409 . S
C132 H124 0.930 . S
C132 C133 1.355 1_655 S
C132 C134 1.415 . S
C133 C132 1.355 1_455 S
C133 C135 1.419 . S
C134 C129 1.425 1_655 S
C134 C131 1.409 . S
C134 C132 1.415 . S
C135 H125 0.930 . S
C135 C133 1.419 . S
C135 C136 1.362 . S
C136 H126 0.930 . S
C136 C129 1.409 . S
C136 C135 1.362 . S
H137 C143 0.930 . S
H138 C146 0.930 . S
H139 C147 0.930 . S
H140 C148 0.930 . S
H141 C151 0.930 . S
H142 C152 0.930 . S
C143 H137 0.930 . S
C143 C144 1.355 1_545 S
C143 C145 1.415 . S
C144 C143 1.355 1_565 S
C144 C146 1.419 . S
C145 C143 1.415 . S
C145 C150 1.425 1_545 S
C145 C152 1.409 . S
C146 H138 0.930 . S
C146 C144 1.419 . S
C146 C147 1.362 . S
C147 H139 0.930 . S
C147 C146 1.362 . S
C147 C150 1.409 . S
C148 H140 0.930 . S
C148 C149 1.355 1_565 S
C148 C150 1.415 . S
C149 C148 1.355 1_545 S
C149 C151 1.419 . S
C150 C145 1.425 1_565 S
C150 C147 1.409 . S
C150 C148 1.415 . S
C151 H141 0.930 . S
C151 C149 1.419 . S
C151 C152 1.362 . S
C152 H142 0.930 . S
C152 C145 1.409 . S
C152 C151 1.362 . S
H153 C159 0.930 . S
H154 C162 0.930 . S
H155 C163 0.930 . S
H156 C164 0.930 . S
H157 C167 0.930 . S
H158 C168 0.930 . S
C159 H153 0.930 . S
C159 C160 1.353 1_455 S
C159 C161 1.415 . S
C160 C159 1.353 1_655 S
C160 C162 1.421 . S
C161 C159 1.415 . S
C161 C166 1.425 1_455 S
C161 C168 1.409 . S
C162 H154 0.930 . S
C162 C160 1.421 . S
C162 C163 1.362 . S
C163 H155 0.930 . S
C163 C162 1.362 . S
C163 C166 1.409 . S
C164 H156 0.930 . S
C164 C165 1.355 1_655 S
C164 C166 1.415 . S
C165 C164 1.355 1_455 S
C165 C167 1.419 . S
C166 C161 1.425 1_655 S
C166 C163 1.409 . S
C166 C164 1.415 . S
C167 H157 0.930 . S
C167 C165 1.419 . S
C167 C168 1.362 . S
C168 H158 0.930 . S
C168 C161 1.409 . S
C168 C167 1.362 . S
H169 C175 0.930 . S
H170 C178 0.930 . S
H171 C179 0.930 . S
H172 C180 0.930 . S
H173 C183 0.930 . S
H174 C184 0.930 . S
C175 H169 0.930 . S
C175 C176 1.355 . S
C175 C177 1.415 . S
C176 C175 1.355 . S
C176 C178 1.419 . S
C177 C175 1.415 . S
C177 C182 1.425 . S
C177 C184 1.409 . S
C178 H170 0.930 . S
C178 C176 1.419 . S
C178 C179 1.362 . S
C179 H171 0.930 . S
C179 C178 1.362 . S
C179 C182 1.409 . S
C180 H172 0.930 . S
C180 C181 1.355 . S
C180 C182 1.415 . S
C181 C180 1.355 . S
C181 C183 1.419 . S
C182 C177 1.425 . S
C182 C179 1.409 . S
C182 C180 1.415 . S
C183 H173 0.930 . S
C183 C181 1.419 . S
C183 C184 1.362 . S
C184 H174 0.930 . S
C184 C177 1.409 . S
C184 C183 1.362 . S
C64 C30 1.348 . S
C69 C32 1.397 . S
C80 C1 1.511 . S
C85 C54 1.533 1_545 S
C96 C0 1.326 1_455 S
C101 C41 1.408 . S
C112 C29 1.561 . S
C117 C45 1.569 1_545 S
C128 C19 1.304 1_655 S
C133 C34 1.347 . S
C144 C20 1.434 . S
C149 C49 1.460 1_545 S
C165 C36 1.326 . S
C160 C10 1.347 1_655 S
C176 C2 1.489 . S
C181 C47 1.497 1_545 S
