# Generated by pormake.
# Topology pts, (4,4)-cn, num edge types: 1
# Building blocks:
#     Node 0, Type 0, BuildingBlock: MUDLON_clean_sbu_0, # of connection points: 4
#     Node 1, Type 0, BuildingBlock: MUDLON_clean_sbu_0, # of connection points: 4
#     Node 2, Type 1, BuildingBlock: AZAVOO_clean_sbu_0, # of connection points: 4
#     Node 3, Type 1, BuildingBlock: AZAVOO_clean_sbu_0, # of connection points: 4
#     Edge 4, Type (0, 1), None
#     Edge 5, Type (0, 1), None
#     Edge 6, Type (0, 1), None
#     Edge 7, Type (0, 1), None
#     Edge 8, Type (0, 1), None
#     Edge 9, Type (0, 1), None
#     Edge 10, Type (0, 1), None
#     Edge 11, Type (0, 1), None
# Relax obj value: 0.032
# Max RMSD: 0.087
# Mean RMSD: 0.072
data_MOF--net-pts--node1-MUDLON_clean_sbu_0--node2-AZAVOO_clean_sbu_0--edge1-none
_symmetry_space_group_name_H-M    P1
_symmetry_Int_Tables_number       1
_symmetry_cell_setting            triclinic
loop_
_symmetry_equiv_pos_as_xyz
'x, y, z'
_cell_length_a     10.916013
_cell_length_b     11.024756
_cell_length_c     16.875506
_cell_angle_alpha  85.711996
_cell_angle_beta   99.551887
_cell_angle_gamma 90.570045
loop_
_atom_site_label
_atom_site_type_symbol
_atom_site_fract_x
_atom_site_fract_y
_atom_site_fract_z
_atom_type_partial_charge
Mg0 Mg 0.54218 0.02046 0.07625 0.0
C1 C 0.40555 0.90463 0.93216 0.0
O2 O 0.51875 0.90486 0.91536 0.0
C3 C 0.74298 0.98399 0.20288 0.0
O4 O 0.74535 0.09613 0.17087 0.0
C5 C 0.34775 0.14094 0.14906 0.0
O6 O 0.27564 0.09482 0.08854 0.0
O7 O 0.46419 0.14349 0.14963 0.0
O8 O 0.38908 0.93407 1.00104 0.0
O9 O 0.66076 0.10047 0.99328 0.0
C10 C 0.76029 0.04351 0.98943 0.0
O11 O 0.79106 0.94678 1.03866 0.0
O12 O 0.65923 0.91228 0.17234 0.0
Mg13 Mg 0.01836 0.49883 0.57384 0.0
C14 C 0.02829 0.67942 0.68258 0.0
O15 O 0.13468 0.67676 0.65611 0.0
C16 C 0.96604 0.33094 0.44699 0.0
O17 O 0.03711 0.41283 0.41723 0.0
C18 C 0.13705 0.67304 0.44457 0.0
O19 O 0.21576 0.58908 0.43365 0.0
O20 O 0.06133 0.65198 0.49333 0.0
O21 O 0.9445 0.60264 0.65919 0.0
O22 O 0.15881 0.38275 0.64733 0.0
C23 C 0.12636 0.33886 0.71278 0.0
O24 O 0.04626 0.3997 0.74451 0.0
O25 O 0.91898 0.3546 0.5083 0.0
Mg26 Mg 0.13396 0.01083 0.34327 0.0
O27 O 0.94817 0.97947 0.26611 0.0
O28 O 0.80392 0.92071 0.34022 0.0
Mg29 Mg 0.90734 0.90756 0.47114 0.0
C30 C 0.83743 0.9487 0.27233 0.0
C31 C 0.30216 0.14334 0.22611 0.0
O32 O 0.38152 0.15314 0.29291 0.0
O33 O 0.05165 0.18398 0.37799 0.0
O34 O 0.92477 0.11902 0.46415 0.0
O35 O 0.19494 0.81779 0.34329 0.0
O36 O 0.09064 0.88622 0.43281 0.0
C37 C 0.97653 0.20462 0.42613 0.0
C38 C 0.14133 0.79614 0.40571 0.0
O39 O 0.19464 0.10088 0.23001 0.0
Mg40 Mg -0.00229 0.96613 0.80491 0.0
O41 O 0.18989 0.91951 0.88062 0.0
O42 O 0.32392 0.9136 0.79391 0.0
Mg43 Mg 0.21916 0.94194 0.66503 0.0
C44 C 0.29981 0.90658 0.86557 0.0
C45 C 0.82648 0.06721 0.921 0.0
O46 O 0.77382 0.13221 0.85614 0.0
O47 O 0.06574 0.16011 0.78159 0.0
O48 O 0.18443 0.14211 0.68636 0.0
O49 O 0.9478 0.76995 0.78889 0.0
O50 O 0.04683 0.88742 0.70824 0.0
C51 C 0.13212 0.20654 0.73123 0.0
C52 C 0.00328 0.78235 0.72677 0.0
O53 O 0.92135 0.00257 0.91849 0.0
loop_
_geom_bond_atom_site_label_1
_geom_bond_atom_site_label_2
_geom_bond_distance
_geom_bond_site_symmetry_2
_ccdc_geom_bond_type
Mg0 O7 2.141 . S
Mg0 O8 2.048 1_554 S
Mg0 O9 2.048 1_554 S
Mg0 O12 2.141 . S
C1 O2 1.313 1_545 S
C1 O8 1.195 . S
O2 C1 1.313 1_565 S
C3 O4 1.245 . S
C3 O12 1.289 1_565 S
O4 C3 1.245 . S
C5 O6 1.245 . S
C5 O7 1.289 1_565 S
O6 C5 1.245 . S
O7 Mg0 2.141 . S
O7 C5 1.289 1_545 S
O8 Mg0 2.048 1_556 S
O8 C1 1.195 . S
O9 Mg0 2.048 1_556 S
O9 C10 1.195 . S
C10 O9 1.195 . S
C10 O11 1.313 1_545 S
O11 C10 1.313 1_565 S
O12 Mg0 2.141 . S
O12 C3 1.289 1_545 S
Mg13 O20 2.141 . S
Mg13 O21 2.048 . S
Mg13 O22 2.048 . S
Mg13 O25 2.141 . S
C14 O15 1.313 . S
C14 O21 1.195 1_455 S
O15 C14 1.313 . S
C16 O17 1.245 . S
C16 O25 1.289 1_455 S
O17 C16 1.245 . S
C18 O19 1.245 . S
C18 O20 1.289 1_455 S
O19 C18 1.245 . S
O20 Mg13 2.141 . S
O20 C18 1.289 1_655 S
O21 Mg13 2.048 . S
O21 C14 1.195 1_655 S
O22 Mg13 2.048 . S
O22 C23 1.195 1_655 S
C23 O22 1.195 1_455 S
C23 O24 1.313 . S
O24 C23 1.313 . S
O25 Mg13 2.141 . S
O25 C16 1.289 1_655 S
Mg26 O27 2.028 . S
Mg26 O33 1.986 . S
Mg26 O35 2.114 1_545 S
Mg26 O36 2.251 1_545 S
Mg26 O39 2.010 . S
O27 Mg26 2.028 . S
O27 C30 1.250 1_455 S
O28 Mg29 2.028 . S
O28 C30 1.248 . S
Mg29 O28 2.028 . S
Mg29 O34 2.032 . S
Mg29 O36 2.079 1_645 S
C30 O27 1.250 1_655 S
C30 O28 1.248 . S
C31 O32 1.264 . S
C31 O39 1.249 . S
O32 C31 1.264 . S
O33 Mg26 1.986 . S
O33 C37 1.246 . S
O34 Mg29 2.032 . S
O34 C37 1.259 1_655 S
O35 Mg26 2.114 1_565 S
O35 C38 1.252 . S
O36 Mg26 2.251 1_565 S
O36 Mg29 2.079 1_465 S
O36 C38 1.273 . S
C37 O33 1.246 . S
C37 O34 1.259 1_455 S
C38 O35 1.252 . S
C38 O36 1.273 . S
O39 Mg26 2.010 . S
O39 C31 1.249 . S
Mg40 O41 2.028 1_655 S
Mg40 O47 1.986 1_655 S
Mg40 O49 2.114 1_545 S
Mg40 O50 2.251 1_645 S
Mg40 O53 2.010 . S
O41 Mg40 2.028 1_455 S
O41 C44 1.250 . S
O42 Mg43 2.028 . S
O42 C44 1.248 . S
Mg43 O42 2.028 . S
Mg43 O48 2.032 . S
Mg43 O50 2.079 1_545 S
C44 O41 1.250 . S
C44 O42 1.248 . S
C45 O46 1.264 . S
C45 O53 1.249 . S
O46 C45 1.264 . S
O47 Mg40 1.986 1_455 S
O47 C51 1.246 . S
O48 Mg43 2.032 . S
O48 C51 1.259 . S
O49 Mg40 2.114 1_565 S
O49 C52 1.252 1_655 S
O50 Mg40 2.251 1_465 S
O50 Mg43 2.079 1_565 S
O50 C52 1.273 . S
C51 O47 1.246 . S
C51 O48 1.259 . S
C52 O49 1.252 1_455 S
C52 O50 1.273 . S
O53 Mg40 2.010 . S
O53 C45 1.249 . S
C31 C5 1.321 1_545 S
C51 C23 1.445 . S
C30 C3 1.415 1_545 S
C52 C14 1.528 . S
C44 C1 1.477 . S
C37 C16 1.370 . S
C45 C10 1.295 . S
C18 C38 1.432 . S
