# Generated by pormake.
# Topology nia, (6,6)-cn, num edge types: 1
# Building blocks:
#     Node 0, Type 0, BuildingBlock: CUWYAW_clean_sbu_0, # of connection points: 6
#     Node 1, Type 0, BuildingBlock: CUWYAW_clean_sbu_0, # of connection points: 6
#     Node 2, Type 1, BuildingBlock: MIDCAF_clean_sbu_0, # of connection points: 6
#     Node 3, Type 1, BuildingBlock: MIDCAF_clean_sbu_0, # of connection points: 6
#     Edge 4, Type (0, 1), BuildingBlock: EYOCIG_clean_linker_4, # of connection points: 2
#     Edge 5, Type (0, 1), BuildingBlock: EYOCIG_clean_linker_4, # of connection points: 2
#     Edge 6, Type (0, 1), BuildingBlock: EYOCIG_clean_linker_4, # of connection points: 2
#     Edge 7, Type (0, 1), BuildingBlock: EYOCIG_clean_linker_4, # of connection points: 2
#     Edge 8, Type (0, 1), BuildingBlock: EYOCIG_clean_linker_4, # of connection points: 2
#     Edge 9, Type (0, 1), BuildingBlock: EYOCIG_clean_linker_4, # of connection points: 2
#     Edge 10, Type (0, 1), BuildingBlock: EYOCIG_clean_linker_4, # of connection points: 2
#     Edge 11, Type (0, 1), BuildingBlock: EYOCIG_clean_linker_4, # of connection points: 2
#     Edge 12, Type (0, 1), BuildingBlock: EYOCIG_clean_linker_4, # of connection points: 2
#     Edge 13, Type (0, 1), BuildingBlock: EYOCIG_clean_linker_4, # of connection points: 2
#     Edge 14, Type (0, 1), BuildingBlock: EYOCIG_clean_linker_4, # of connection points: 2
#     Edge 15, Type (0, 1), BuildingBlock: EYOCIG_clean_linker_4, # of connection points: 2
# Relax obj value: 0.322
# Max RMSD: 0.281
# Mean RMSD: 0.247
data_MOF--net-nia--node1-CUWYAW_clean_sbu_0--node2-MIDCAF_clean_sbu_0--edge1-EYOCIG_clean_linker_4
_symmetry_space_group_name_H-M    P1
_symmetry_Int_Tables_number       1
_symmetry_cell_setting            triclinic
loop_
_symmetry_equiv_pos_as_xyz
'x, y, z'
_cell_length_a     23.73896
_cell_length_b     20.650546
_cell_length_c     28.979905
_cell_angle_alpha  104.61687
_cell_angle_beta   64.288729
_cell_angle_gamma 129.557
loop_
_atom_site_label
_atom_site_type_symbol
_atom_site_fract_x
_atom_site_fract_y
_atom_site_fract_z
_atom_type_partial_charge
C0 C 0.07221 0.91301 0.07291 0.0
Eu1 Eu 0.01571 0.96617 0.04824 0.0
C2 C 0.05814 0.83578 0.08084 0.0
C3 C -0.00348 0.78181 0.12381 0.0
C4 C -0.00051 0.72612 0.13989 0.0
C5 C 0.06424 0.72521 0.11343 0.0
C6 C 0.11877 0.76899 0.06625 0.0
C7 C 0.11578 0.82444 0.05003 0.0
C8 C 0.86563 0.91736 0.08475 0.0
C9 C 0.97046 0.89477 0.94764 0.0
C10 C 0.93775 0.12014 0.97012 0.0
Eu11 Eu -0.00096 0.07177 0.99335 0.0
C12 C 0.94694 0.19512 0.96425 0.0
C13 C 0.00459 0.2491 0.92069 0.0
C14 C -0.00507 0.29957 0.90583 0.0
C15 C 0.92758 0.29524 0.93417 0.0
C16 C 0.87759 0.25281 0.98197 0.0
C17 C 0.88721 0.20246 0.99697 0.0
C18 C 0.14912 0.12391 0.95736 0.0
C19 C 0.05796 0.14953 0.08863 0.0
O20 O 0.0943 0.93347 0.02557 0.0
O21 O 0.02492 0.93004 0.10709 0.0
O22 O 0.88499 0.8837 0.1012 0.0
O23 O 0.92588 0.97082 0.05025 0.0
O24 O -0.00593 0.88922 0.97926 0.0
O25 O 0.96063 0.95188 0.94967 0.0
O26 O 0.9146 0.09656 1.01691 0.0
O27 O -0.01092 0.1089 0.93554 0.0
O28 O 0.12887 0.1576 0.94183 0.0
O29 O 0.08941 0.06769 0.9909 0.0
O30 O 0.02898 0.15326 0.06005 0.0
O31 O 0.06541 0.09051 0.08634 0.0
H32 H 0.95031 0.788 0.14765 0.0
H33 H 0.95643 0.6916 0.17613 0.0
H34 H 0.16872 0.76807 0.04507 0.0
H35 H 0.16307 0.86455 1.01627 0.0
H36 H 0.05233 0.24605 0.89532 0.0
H37 H 0.03451 0.33333 0.86909 0.0
H38 H 0.82574 0.24995 1.00453 0.0
H39 H 0.84291 0.16235 0.03116 0.0
C40 C 0.83809 0.89953 0.46079 0.0
Eu41 Eu 0.93695 0.96313 0.505 0.0
C42 C 0.77488 0.89915 0.4628 0.0
C43 C 0.69892 0.82272 0.474 0.0
C44 C 0.64311 0.81402 0.46262 0.0
C45 C 0.66334 0.88157 0.43968 0.0
C46 C 0.73467 0.96101 0.43555 0.0
C47 C 0.79072 0.96987 0.4469 0.0
C48 C 0.92321 0.8879 0.57894 0.0
C49 C 0.94558 0.10283 0.59207 0.0
C50 C 0.18978 0.14995 0.58364 0.0
Eu51 Eu 0.08991 0.08834 0.5405 0.0
C52 C 0.24652 0.1412 0.58409 0.0
C53 C 0.32501 0.21276 0.57305 0.0
C54 C 0.37716 0.21122 0.58228 0.0
C55 C 0.35115 0.13817 0.60285 0.0
C56 C 0.27567 0.064 0.60838 0.0
C57 C 0.22321 0.06547 0.59925 0.0
C58 C 0.10103 0.16354 0.46772 0.0
C59 C 0.08171 0.94973 0.45262 0.0
O60 O 0.91091 0.96742 0.44288 0.0
O61 O 0.82306 0.86266 0.49956 0.0
O62 O 0.87068 0.85215 0.55893 0.0
O63 O 0.97791 0.96128 0.55928 0.0
O64 O 0.91076 0.04837 0.56002 0.0
O65 O 0.00881 0.12146 0.59503 0.0
O66 O 0.11438 0.08967 0.60524 0.0
O67 O 0.20777 0.18162 0.54129 0.0
O68 O 0.15331 0.2008 0.48823 0.0
O69 O 0.04859 0.0896 0.48657 0.0
O70 O 0.11539 1.00254 0.48549 0.0
O71 O 0.01901 0.93197 0.44949 0.0
H72 H 0.68485 0.76776 0.48732 0.0
H73 H 0.58738 0.75253 0.46688 0.0
H74 H 0.75016 0.01405 0.41871 0.0
H75 H 0.84816 0.03012 0.43929 0.0
H76 H 0.34466 0.27143 0.56044 0.0
H77 H 0.43571 0.26889 0.57731 0.0
H78 H 0.25516 0.00692 0.62387 0.0
H79 H 0.16348 0.00889 0.60695 0.0
Zn80 Zn 0.34635 0.64607 0.17662 0.0
Zn81 Zn 0.24628 0.63308 0.36945 0.0
Zn82 Zn 0.30055 0.63961 0.27305 0.0
C83 C 0.41346 0.73115 0.33143 0.0
C84 C 0.19216 0.47313 0.35298 0.0
O85 O 0.23885 0.6697 0.25197 0.0
O86 O 0.28847 0.67557 0.1671 0.0
C87 C 0.4851 0.74641 0.18653 0.0
O88 O 0.40898 0.72074 0.28723 0.0
O89 O 0.35247 0.69758 0.37132 0.0
O90 O 0.17769 0.51321 0.39096 0.0
O91 O 0.23489 0.50896 0.30759 0.0
O92 O 0.46136 0.72259 0.14997 0.0
O93 O 0.43505 0.72219 0.23319 0.0
O94 O 0.24323 0.50913 0.25508 0.0
O95 O 0.29187 0.52393 0.17057 0.0
C96 C 0.24727 0.47759 0.21061 0.0
O97 O 0.24168 0.70255 0.3022 0.0
O98 O 0.20452 0.69758 0.38641 0.0
C99 C 0.24025 0.67696 0.20846 0.0
C100 C 0.21163 0.72206 0.34724 0.0
Zn101 Zn 0.66948 0.39865 0.86343 0.0
Zn102 Zn 0.77436 0.41142 0.67227 0.0
Zn103 Zn 0.71376 0.4003 0.76816 0.0
C104 C 0.81514 0.56822 0.69191 0.0
C105 C 0.606 0.29341 0.70587 0.0
O106 O 0.7645 0.36088 0.79235 0.0
O107 O 0.69588 0.33358 0.87559 0.0
C108 C 0.7912 0.56466 0.82744 0.0
O109 O 0.77915 0.5332 0.73703 0.0
O110 O 0.82512 0.52769 0.65271 0.0
O111 O 0.66902 0.32462 0.66725 0.0
O112 O 0.60701 0.31571 0.75126 0.0
O113 O 0.75025 0.51966 0.86773 0.0
O114 O 0.78009 0.53258 0.78531 0.0
O115 O 0.58049 0.32271 0.80594 0.0
O116 O 0.55845 0.35064 0.88827 0.0
C117 C 0.53273 0.31442 0.85246 0.0
O118 O 0.77343 0.33836 0.73836 0.0
O119 O 0.83631 0.36951 0.65525 0.0
C120 C 0.74923 0.3374 0.83602 0.0
C121 C 0.81732 0.33294 0.69399 0.0
C122 C 0.10741 0.68302 0.16326 0.0
C123 C 0.08673 0.70187 0.14113 0.0
C124 C 0.14316 0.67788 0.18892 0.0
C125 C 0.18247 0.67769 0.20462 0.0
C126 C 0.43684 0.16094 0.64877 0.0
C127 C 0.39458 0.14505 0.62859 0.0
C128 C 0.48603 0.19498 0.67651 0.0
C129 C 0.53449 0.23726 0.6962 0.0
C130 C 0.11324 0.26389 0.15423 0.0
C131 C 0.08658 0.21451 0.1235 0.0
C132 C 0.1518 0.32616 0.18594 0.0
C133 C 0.19051 0.39076 0.20503 0.0
C134 C 0.89103 0.18854 0.64733 0.0
C135 C 0.91675 0.1501 0.62246 0.0
C136 C 0.86318 0.23715 0.67143 0.0
C137 C 0.83949 0.27897 0.68618 0.0
C138 C 0.72104 0.8732 0.12762 0.0
C139 C 0.78855 0.8978 0.10558 0.0
C140 C 0.63959 0.83543 0.1544 0.0
C141 C 0.56875 0.79587 0.17374 0.0
C142 C 0.8996 0.79097 0.64079 0.0
C143 C 0.91878 0.84327 0.61358 0.0
C144 C 0.86995 0.71941 0.66754 0.0
C145 C 0.84276 0.65247 0.68412 0.0
C146 C 0.13753 0.8659 0.39542 0.0
C147 C 0.11136 0.90359 0.42122 0.0
C148 C 0.16538 0.81747 0.37021 0.0
C149 C 0.18818 0.77475 0.35466 0.0
C150 C 0.29628 0.17774 0.91455 0.0
C151 C 0.22753 0.14782 0.93694 0.0
C152 C 0.37805 0.22023 0.88666 0.0
C153 C 0.44875 0.26083 0.86622 0.0
C154 C 0.11681 0.25716 0.40793 0.0
C155 C 0.10208 0.20699 0.43438 0.0
C156 C 0.14189 0.32591 0.38088 0.0
C157 C 0.1673 0.39119 0.36316 0.0
C158 C 0.87374 0.3241 0.88579 0.0
C159 C 0.89819 0.31089 0.90795 0.0
C160 C 0.83771 0.32771 0.85987 0.0
C161 C 0.80218 0.33266 0.84329 0.0
C162 C 0.58198 0.84552 0.38571 0.0
C163 C 0.62067 0.86472 0.40985 0.0
C164 C 0.53578 0.8146 0.35639 0.0
C165 C 0.48682 0.78 0.3378 0.0
C166 C 0.93274 0.78286 0.877 0.0
C167 C 0.95066 0.83273 0.90977 0.0
C168 C 0.89689 0.71677 0.84579 0.0
C169 C 0.85299 0.65101 0.82989 0.0
loop_
_geom_bond_atom_site_label_1
_geom_bond_atom_site_label_2
_geom_bond_distance
_geom_bond_site_symmetry_2
_ccdc_geom_bond_type
C0 Eu1 2.835 . S
C0 C2 1.500 . S
C0 O20 1.257 . S
C0 O21 1.260 1_455 S
Eu1 C0 2.835 . S
Eu1 O20 2.473 . S
Eu1 O21 2.480 1_455 S
Eu1 O22 2.430 1_455 S
Eu1 O23 2.670 1_455 S
Eu1 O24 2.394 1_455 S
Eu1 O29 2.355 1_564 S
Eu1 O31 2.374 1_565 S
C2 C0 1.500 . S
C2 C3 1.377 . S
C2 C7 1.377 . S
C3 C2 1.377 . S
C3 C4 1.395 . S
C3 H32 0.931 1_455 S
C4 C3 1.395 . S
C4 C5 1.383 . S
C4 H33 0.931 1_455 S
C5 C4 1.383 . S
C5 C6 1.394 . S
C6 C5 1.394 . S
C6 C7 1.378 . S
C6 H34 0.931 . S
C7 C2 1.377 . S
C7 C6 1.378 . S
C7 H35 0.931 . S
C8 O22 1.259 . S
C8 O23 1.270 . S
C9 O24 1.251 1_556 S
C9 O25 1.251 . S
C10 Eu11 2.835 . S
C10 C12 1.500 . S
C10 O26 1.257 . S
C10 O27 1.260 1_655 S
Eu11 C10 2.835 . S
Eu11 O23 2.355 1_546 S
Eu11 O25 2.374 1_545 S
Eu11 O26 2.473 . S
Eu11 O27 2.480 1_655 S
Eu11 O28 2.430 1_655 S
Eu11 O29 2.670 1_655 S
Eu11 O30 2.394 1_656 S
C12 C10 1.500 . S
C12 C13 1.377 1_655 S
C12 C17 1.377 . S
C13 C12 1.377 1_455 S
C13 C14 1.395 . S
C13 H36 0.931 . S
C14 C13 1.395 . S
C14 C15 1.383 1_455 S
C14 H37 0.931 . S
C15 C14 1.383 1_655 S
C15 C16 1.394 . S
C16 C15 1.394 . S
C16 C17 1.378 . S
C16 H38 0.931 . S
C17 C12 1.377 . S
C17 C16 1.378 . S
C17 H39 0.931 1_556 S
C18 O28 1.259 . S
C18 O29 1.270 . S
C19 O30 1.251 . S
C19 O31 1.251 . S
O20 C0 1.257 . S
O20 Eu1 2.473 . S
O21 C0 1.260 1_655 S
O21 Eu1 2.480 1_655 S
O22 Eu1 2.430 1_655 S
O22 C8 1.259 . S
O23 Eu1 2.670 1_655 S
O23 C8 1.270 . S
O23 Eu11 2.355 1_564 S
O24 Eu1 2.394 1_655 S
O24 C9 1.251 1_554 S
O25 C9 1.251 . S
O25 Eu11 2.374 1_565 S
O26 C10 1.257 . S
O26 Eu11 2.473 . S
O27 C10 1.260 1_455 S
O27 Eu11 2.480 1_455 S
O28 Eu11 2.430 1_455 S
O28 C18 1.259 . S
O29 Eu1 2.355 1_546 S
O29 Eu11 2.670 1_455 S
O29 C18 1.270 . S
O30 Eu11 2.394 1_454 S
O30 C19 1.251 . S
O31 Eu1 2.374 1_545 S
O31 C19 1.251 . S
H32 C3 0.931 1_655 S
H33 C4 0.931 1_655 S
H34 C6 0.931 . S
H35 C7 0.931 . S
H36 C13 0.931 . S
H37 C14 0.931 . S
H38 C16 0.931 . S
H39 C17 0.931 1_554 S
C40 Eu41 2.835 . S
C40 C42 1.500 . S
C40 O60 1.257 . S
C40 O61 1.260 . S
Eu41 C40 2.835 . S
Eu41 O60 2.473 . S
Eu41 O61 2.480 . S
Eu41 O62 2.430 . S
Eu41 O63 2.681 . S
Eu41 O64 2.394 . S
Eu41 O69 2.355 1_665 S
Eu41 O71 2.374 1_655 S
C42 C40 1.500 . S
C42 C43 1.377 . S
C42 C47 1.377 . S
C43 C42 1.377 . S
C43 C44 1.395 . S
C43 H72 0.931 . S
C44 C43 1.395 . S
C44 C45 1.383 . S
C44 H73 0.931 . S
C45 C44 1.383 . S
C45 C46 1.394 . S
C46 C45 1.394 . S
C46 C47 1.378 . S
C46 H74 0.931 . S
C47 C42 1.377 . S
C47 C46 1.378 . S
C47 H75 0.931 1_565 S
C48 O62 1.259 . S
C48 O63 1.275 . S
C49 O64 1.251 1_545 S
C49 O65 1.251 . S
C50 Eu51 2.835 . S
C50 C52 1.500 . S
C50 O66 1.257 . S
C50 O67 1.260 . S
Eu51 C50 2.835 . S
Eu51 O63 2.352 1_445 S
Eu51 O65 2.374 1_455 S
Eu51 O66 2.473 . S
Eu51 O67 2.480 . S
Eu51 O68 2.430 . S
Eu51 O69 2.670 . S
Eu51 O70 2.394 . S
C52 C50 1.500 . S
C52 C53 1.377 . S
C52 C57 1.377 . S
C53 C52 1.377 . S
C53 C54 1.395 . S
C53 H76 0.931 . S
C54 C53 1.395 . S
C54 C55 1.383 . S
C54 H77 0.931 . S
C55 C54 1.383 . S
C55 C56 1.394 . S
C56 C55 1.394 . S
C56 C57 1.378 . S
C56 H78 0.931 . S
C57 C52 1.377 . S
C57 C56 1.378 . S
C57 H79 0.931 . S
C58 O68 1.259 . S
C58 O69 1.270 . S
C59 O70 1.251 1_565 S
C59 O71 1.251 . S
O60 C40 1.257 . S
O60 Eu41 2.473 . S
O61 C40 1.260 . S
O61 Eu41 2.480 . S
O62 Eu41 2.430 . S
O62 C48 1.259 . S
O63 Eu41 2.681 . S
O63 C48 1.275 . S
O63 Eu51 2.352 1_665 S
O64 Eu41 2.394 . S
O64 C49 1.251 1_565 S
O65 C49 1.251 . S
O65 Eu51 2.374 1_655 S
O66 C50 1.257 . S
O66 Eu51 2.473 . S
O67 C50 1.260 . S
O67 Eu51 2.480 . S
O68 Eu51 2.430 . S
O68 C58 1.259 . S
O69 Eu41 2.355 1_445 S
O69 Eu51 2.670 . S
O69 C58 1.270 . S
O70 Eu51 2.394 . S
O70 C59 1.251 1_545 S
O71 Eu41 2.374 1_455 S
O71 C59 1.251 . S
H72 C43 0.931 . S
H73 C44 0.931 . S
H74 C46 0.931 . S
H75 C47 0.931 1_545 S
H76 C53 0.931 . S
H77 C54 0.931 . S
H78 C56 0.931 . S
H79 C57 0.931 . S
Zn80 O86 1.920 . S
Zn80 O92 1.898 . S
Zn80 O95 1.905 . S
Zn81 O89 1.905 . S
Zn81 O90 1.898 . S
Zn81 O98 1.920 . S
Zn82 O85 2.080 . S
Zn82 O88 2.114 . S
Zn82 O91 2.120 . S
Zn82 O93 2.120 . S
Zn82 O94 2.114 . S
Zn82 O97 2.080 . S
C83 O88 1.166 . S
C83 O89 1.182 . S
C84 O90 1.167 . S
C84 O91 1.299 . S
O85 Zn82 2.080 . S
O85 C99 1.305 . S
O86 Zn80 1.920 . S
O86 C99 1.234 . S
C87 O92 1.167 . S
C87 O93 1.299 . S
O88 Zn82 2.114 . S
O88 C83 1.166 . S
O89 Zn81 1.905 . S
O89 C83 1.182 . S
O90 Zn81 1.898 . S
O90 C84 1.167 . S
O91 Zn82 2.120 . S
O91 C84 1.299 . S
O92 Zn80 1.898 . S
O92 C87 1.167 . S
O93 Zn82 2.120 . S
O93 C87 1.299 . S
O94 Zn82 2.114 . S
O94 C96 1.166 . S
O95 Zn80 1.905 . S
O95 C96 1.182 . S
C96 O94 1.166 . S
C96 O95 1.182 . S
O97 Zn82 2.080 . S
O97 C100 1.305 . S
O98 Zn81 1.920 . S
O98 C100 1.234 . S
C99 O85 1.305 . S
C99 O86 1.234 . S
C100 O97 1.305 . S
C100 O98 1.234 . S
Zn101 O107 1.920 . S
Zn101 O113 1.898 . S
Zn101 O116 1.905 . S
Zn102 O110 1.905 . S
Zn102 O111 1.898 . S
Zn102 O119 1.920 . S
Zn103 O106 2.080 . S
Zn103 O109 2.114 . S
Zn103 O112 2.120 . S
Zn103 O114 2.120 . S
Zn103 O115 2.114 . S
Zn103 O118 2.080 . S
C104 O109 1.166 . S
C104 O110 1.182 . S
C105 O111 1.167 . S
C105 O112 1.299 . S
O106 Zn103 2.080 . S
O106 C120 1.305 . S
O107 Zn101 1.920 . S
O107 C120 1.234 . S
C108 O113 1.167 . S
C108 O114 1.299 . S
O109 Zn103 2.114 . S
O109 C104 1.166 . S
O110 Zn102 1.905 . S
O110 C104 1.182 . S
O111 Zn102 1.898 . S
O111 C105 1.167 . S
O112 Zn103 2.120 . S
O112 C105 1.299 . S
O113 Zn101 1.898 . S
O113 C108 1.167 . S
O114 Zn103 2.120 . S
O114 C108 1.299 . S
O115 Zn103 2.114 . S
O115 C117 1.166 . S
O116 Zn101 1.905 . S
O116 C117 1.182 . S
C117 O115 1.166 . S
C117 O116 1.182 . S
O118 Zn103 2.080 . S
O118 C121 1.305 . S
O119 Zn102 1.920 . S
O119 C121 1.234 . S
C120 O106 1.305 . S
C120 O107 1.234 . S
C121 O118 1.305 . S
C121 O119 1.234 . S
C122 C123 1.170 . S
C122 C124 1.380 . S
C123 C122 1.170 . S
C124 C122 1.380 . S
C124 C125 1.170 . S
C125 C124 1.170 . S
C126 C127 1.170 . S
C126 C128 1.380 . S
C127 C126 1.170 . S
C128 C126 1.380 . S
C128 C129 1.170 . S
C129 C128 1.170 . S
C130 C131 1.170 . S
C130 C132 1.380 . S
C131 C130 1.170 . S
C132 C130 1.380 . S
C132 C133 1.170 . S
C133 C132 1.170 . S
C134 C135 1.170 . S
C134 C136 1.380 . S
C135 C134 1.170 . S
C136 C134 1.380 . S
C136 C137 1.170 . S
C137 C136 1.170 . S
C138 C139 1.170 . S
C138 C140 1.380 . S
C139 C138 1.170 . S
C140 C138 1.380 . S
C140 C141 1.170 . S
C141 C140 1.170 . S
C142 C143 1.170 . S
C142 C144 1.380 . S
C143 C142 1.170 . S
C144 C142 1.380 . S
C144 C145 1.170 . S
C145 C144 1.170 . S
C146 C147 1.170 . S
C146 C148 1.380 . S
C147 C146 1.170 . S
C148 C146 1.380 . S
C148 C149 1.170 . S
C149 C148 1.170 . S
C150 C151 1.170 . S
C150 C152 1.380 . S
C151 C150 1.170 . S
C152 C150 1.380 . S
C152 C153 1.170 . S
C153 C152 1.170 . S
C154 C155 1.170 . S
C154 C156 1.380 . S
C155 C154 1.170 . S
C156 C154 1.380 . S
C156 C157 1.170 . S
C157 C156 1.170 . S
C158 C159 1.170 . S
C158 C160 1.380 . S
C159 C158 1.170 . S
C160 C158 1.380 . S
C160 C161 1.170 . S
C161 C160 1.170 . S
C162 C163 1.170 . S
C162 C164 1.380 . S
C163 C162 1.170 . S
C164 C162 1.380 . S
C164 C165 1.170 . S
C165 C164 1.170 . S
C166 C167 1.170 . S
C166 C168 1.380 . S
C167 C166 1.170 . S
C168 C166 1.380 . S
C168 C169 1.170 . S
C169 C168 1.170 . S
C123 C5 1.375 . S
C125 C99 1.261 . S
C127 C55 1.111 . S
C129 C105 0.950 . S
C131 C19 1.484 . S
C133 C96 1.357 . S
C135 C49 2.201 . S
C137 C121 2.096 . S
C139 C8 2.010 . S
C141 C87 1.950 . S
C145 C104 1.816 . S
C143 C48 1.894 . S
C147 C59 1.907 . S
C149 C100 1.845 . S
C153 C117 2.141 . S
C151 C18 2.176 . S
C157 C84 2.106 . S
C155 C58 2.285 . S
C161 C120 1.381 . S
C159 C15 1.532 . S
C165 C83 0.981 . S
C163 C45 1.182 . S
C169 C108 1.120 . S
C167 C9 1.196 . S
