# Generated by pormake.
# Topology nia, (6,6)-cn, num edge types: 1
# Building blocks:
#     Node 0, Type 0, BuildingBlock: VOLQOD_clean_sbu_1, # of connection points: 6
#     Node 1, Type 0, BuildingBlock: VOLQOD_clean_sbu_1, # of connection points: 6
#     Node 2, Type 1, BuildingBlock: MIDCAF_clean_sbu_0, # of connection points: 6
#     Node 3, Type 1, BuildingBlock: MIDCAF_clean_sbu_0, # of connection points: 6
#     Edge 4, Type (0, 1), BuildingBlock: AJUNOK_clean_linker_0, # of connection points: 2
#     Edge 5, Type (0, 1), BuildingBlock: AJUNOK_clean_linker_0, # of connection points: 2
#     Edge 6, Type (0, 1), BuildingBlock: AJUNOK_clean_linker_0, # of connection points: 2
#     Edge 7, Type (0, 1), BuildingBlock: AJUNOK_clean_linker_0, # of connection points: 2
#     Edge 8, Type (0, 1), BuildingBlock: AJUNOK_clean_linker_0, # of connection points: 2
#     Edge 9, Type (0, 1), BuildingBlock: AJUNOK_clean_linker_0, # of connection points: 2
#     Edge 10, Type (0, 1), BuildingBlock: AJUNOK_clean_linker_0, # of connection points: 2
#     Edge 11, Type (0, 1), BuildingBlock: AJUNOK_clean_linker_0, # of connection points: 2
#     Edge 12, Type (0, 1), BuildingBlock: AJUNOK_clean_linker_0, # of connection points: 2
#     Edge 13, Type (0, 1), BuildingBlock: AJUNOK_clean_linker_0, # of connection points: 2
#     Edge 14, Type (0, 1), BuildingBlock: AJUNOK_clean_linker_0, # of connection points: 2
#     Edge 15, Type (0, 1), BuildingBlock: AJUNOK_clean_linker_0, # of connection points: 2
# Relax obj value: 0.144
# Max RMSD: 0.235
# Mean RMSD: 0.189
data_MOF--net-nia--node1-VOLQOD_clean_sbu_1--node2-MIDCAF_clean_sbu_0--edge1-AJUNOK_clean_linker_0
_symmetry_space_group_name_H-M    P1
_symmetry_Int_Tables_number       1
_symmetry_cell_setting            triclinic
loop_
_symmetry_equiv_pos_as_xyz
'x, y, z'
_cell_length_a     18.810067
_cell_length_b     18.889909
_cell_length_c     24.442078
_cell_angle_alpha  89.73822
_cell_angle_beta   90.325795
_cell_angle_gamma 120.27433
loop_
_atom_site_label
_atom_site_type_symbol
_atom_site_fract_x
_atom_site_fract_y
_atom_site_fract_z
_atom_type_partial_charge
O0 O 0.06181 0.03964 0.95275 0.0
Zn1 Zn -0.05509 -0.03129 0.98066 0.0
O2 O -0.05804 -0.03115 1.06192 0.0
Zn3 Zn 0.8962 0.85793 0.09034 0.0
Zn4 Zn 0.05234 0.03679 0.09172 0.0
Zn5 Zn 0.87371 0.01206 0.08738 0.0
O6 O 0.79093 0.82029 0.13209 0.0
O7 O 0.78242 0.93297 0.13601 0.0
O8 O 0.90084 0.85331 0.95156 0.0
O9 O 0.87405 0.78047 1.02837 0.0
O10 O -0.02517 0.84856 0.14138 0.0
O11 O 0.08741 -0.0287 0.13818 0.0
O12 O 0.06131 0.12837 0.13835 0.0
O13 O 0.87502 0.01272 0.94831 0.0
O14 O 0.93835 0.11621 0.13008 0.0
O15 O 0.82178 0.03438 1.02318 0.0
C16 C 0.12907 0.08498 0.97819 0.0
C17 C 0.75577 0.85857 0.14904 0.0
C18 C 0.04872 0.89784 0.15585 0.0
C19 C 0.87732 0.78565 0.97638 0.0
C20 C 0.01156 0.15354 0.14872 0.0
C21 C 0.82777 0.03357 0.97136 0.0
O22 O 0.13241 0.08884 1.03023 0.0
O23 O 0.06171 0.15691 0.52653 0.0
Zn24 Zn 0.00981 0.08061 0.59009 0.0
O25 O -0.05701 -0.03122 0.56337 0.0
Zn26 Zn 0.83136 0.92418 0.59072 0.0
Zn27 Zn -0.05691 -0.03342 0.48227 0.0
Zn28 Zn -0.01218 0.90336 0.59235 0.0
O29 O 0.79476 0.82203 0.63588 0.0
O30 O 0.90816 0.8141 0.64172 0.0
O31 O -0.05706 0.11749 0.63293 0.0
O32 O 0.82058 0.00461 0.63821 0.0
O33 O 0.75359 0.89751 0.52754 0.0
O34 O 0.82752 0.91902 0.45203 0.0
O35 O -0.01053 0.89729 0.45374 0.0
O36 O 0.10077 0.09267 0.63966 0.0
O37 O 0.01267 0.84939 0.53102 0.0
O38 O 0.09093 -0.02923 0.63621 0.0
C39 C 0.05618 0.14994 0.47464 0.0
C40 C 0.83355 0.78795 0.65448 0.0
C41 C 0.75924 0.89675 0.47566 0.0
C42 C 0.86928 0.07927 0.65052 0.0
C43 C 0.0118 0.85254 0.47899 0.0
C44 C 0.12632 0.04429 0.65343 0.0
O45 O 0.01122 0.08115 0.45133 0.0
Zn46 Zn 0.2691 0.6374 0.21431 0.0
Zn47 Zn 0.2743 0.63211 0.4121 0.0
Zn48 Zn 0.27195 0.63427 0.31348 0.0
C49 C 0.43268 0.73939 0.3873 0.0
C50 C 0.22202 0.47445 0.38596 0.0
O51 O 0.21022 0.70286 0.28777 0.0
O52 O 0.25551 0.73332 0.20294 0.0
C53 C 0.42798 0.68988 0.23649 0.0
O54 O 0.40334 0.70545 0.34058 0.0
O55 O 0.38462 0.7252 0.42687 0.0
O56 O 0.25842 0.52243 0.42527 0.0
O57 O 0.21397 0.50346 0.33998 0.0
O58 O 0.37828 0.65218 0.19808 0.0
O59 O 0.40075 0.69704 0.28323 0.0
O60 O 0.20358 0.50631 0.28311 0.0
O61 O 0.17273 0.52828 0.19982 0.0
C62 C 0.16441 0.47901 0.23755 0.0
O63 O 0.19933 0.69016 0.3441 0.0
O64 O 0.18103 0.64717 0.42957 0.0
C65 C 0.21823 0.7419 0.24272 0.0
C66 C 0.16508 0.68168 0.39111 0.0
Zn67 Zn 0.61574 0.30185 0.91451 0.0
Zn68 Zn 0.6115 0.30488 0.71604 0.0
Zn69 Zn 0.61263 0.3035 0.81526 0.0
C70 C 0.66472 0.46206 0.74224 0.0
C71 C 0.45311 0.1998 0.74217 0.0
O72 O 0.66852 0.2288 0.84073 0.0
O73 O 0.62978 0.20675 0.92706 0.0
C74 C 0.72494 0.46026 0.89019 0.0
O75 O 0.67469 0.43285 0.78752 0.0
O76 O 0.62512 0.41436 0.70345 0.0
O77 O 0.50087 0.20923 0.7033 0.0
O78 O 0.48265 0.23735 0.78783 0.0
O79 O 0.71129 0.41099 0.92906 0.0
O80 O 0.68775 0.43293 0.844 0.0
O81 O 0.48283 0.24722 0.84455 0.0
O82 O 0.50669 0.28677 0.93067 0.0
C83 C 0.4565 0.25418 0.89166 0.0
O84 O 0.67853 0.2416 0.78436 0.0
O85 O 0.70674 0.29106 0.70031 0.0
C86 C 0.66161 0.1921 0.88664 0.0
C87 C 0.71564 0.25095 0.73839 0.0
C88 C 0.17876 0.90235 0.18308 0.0
C89 C 0.09306 0.86638 0.18888 0.0
C90 C 0.2203 0.8645 0.20467 0.0
C91 C 0.17799 0.79044 0.23382 0.0
H92 H 0.21331 -0.04288 0.15851 0.0
H93 H 0.2853 0.8911 0.19603 0.0
S94 S -0.04391 0.67786 0.26787 0.0
N95 N -0.03104 0.7574 0.2315 0.0
N96 N 0.04777 0.68644 0.2721 0.0
C97 C 0.09379 0.75734 0.24392 0.0
C98 C 0.05108 0.79532 0.22142 0.0
C99 C 0.2535 0.04188 0.67862 0.0
C100 C 0.20308 0.07631 0.68573 0.0
C101 C 0.33295 0.0794 0.70073 0.0
C102 C 0.36411 0.15156 0.73168 0.0
H103 H 0.23362 -0.0115 0.65293 0.0
H104 H 0.37178 0.05394 0.69133 0.0
S105 S 0.25281 0.25944 0.76919 0.0
N106 N 0.18664 0.18167 0.7311 0.0
N107 N 0.33658 0.2521 0.77269 0.0
C108 C 0.31236 0.18313 0.74278 0.0
C109 C 0.2316 0.14549 0.71973 0.0
C110 C 0.11556 0.26319 0.21008 0.0
C111 C 0.04174 0.23087 0.1797 0.0
C112 C 0.15203 0.34181 0.233 0.0
C113 C 0.11633 0.3909 0.22569 0.0
H114 H 0.14713 0.22881 0.2145 0.0
H115 H 0.21092 0.36614 0.2536 0.0
S116 S 0.91847 0.33216 0.15662 0.0
N117 N 0.92991 0.25163 0.14925 0.0
N118 N -8e-05 0.39992 0.19138 0.0
C119 C 0.04024 0.35775 0.19869 0.0
C120 C 0.0024 0.27743 0.17604 0.0
C121 C 0.87187 0.20903 0.67366 0.0
C122 C 0.83733 0.12421 0.68181 0.0
C123 C 0.83467 0.25085 0.69532 0.0
C124 C 0.76271 0.2098 0.72683 0.0
H125 H 0.92526 0.24261 0.64773 0.0
H126 H 0.86052 0.31518 0.68543 0.0
S127 S 0.65354 -0.00972 0.76589 0.0
N128 N 0.73137 0.00223 0.72807 0.0
N129 N 0.66138 0.0813 0.76845 0.0
C130 C 0.73061 0.12636 0.73843 0.0
C131 C 0.76798 0.08342 0.71596 0.0
C132 C 0.62539 0.72976 0.17088 0.0
C133 C 0.67816 0.81398 0.18015 0.0
C134 C 0.54563 0.68877 0.19224 0.0
C135 C 0.5165 0.73004 0.2246 0.0
H136 H 0.64392 0.69623 0.14429 0.0
H137 H 0.50528 0.62498 0.18159 0.0
S138 S 0.63393 0.94759 0.26728 0.0
N139 N 0.69856 0.93531 0.2285 0.0
N140 N 0.54821 0.8576 0.26876 0.0
C141 C 0.57029 0.81267 0.23739 0.0
C142 C 0.65134 0.85483 0.21513 0.0
C143 C 0.70373 0.66072 0.67995 0.0
C144 C 0.78917 0.71167 0.68698 0.0
C145 C 0.66253 0.58132 0.70163 0.0
C146 C 0.70491 0.5507 0.73198 0.0
H147 H 0.66922 0.68014 0.65459 0.0
H148 H 0.5977 0.54213 0.69234 0.0
S149 S 0.92626 0.66321 0.76881 0.0
N150 N 0.91303 0.72903 0.73172 0.0
N151 N 0.83504 0.57909 0.77204 0.0
C152 C 0.78887 0.60287 0.74292 0.0
C153 C 0.83117 0.68364 0.72049 0.0
C154 C 0.09501 0.83687 0.40521 0.0
C155 C 0.03797 0.80266 0.44821 0.0
C156 C 0.13239 0.79481 0.38339 0.0
C157 C 0.11251 0.71699 0.4034 0.0
H158 H 0.11503 0.89851 0.39104 0.0
H159 H 0.18085 0.82563 0.3535 0.0
S160 S -0.04513 0.5952 0.50795 0.0
N161 N -0.04448 0.68283 0.50472 0.0
N162 N 0.02361 0.60308 0.46293 0.0
C163 C 0.05013 0.67963 0.44286 0.0
C164 C 0.01331 0.72266 0.46546 0.0
C165 C 0.22872 0.10037 0.90475 0.0
C166 C 0.20622 0.13461 0.94761 0.0
C167 C 0.30894 0.14208 0.88318 0.0
C168 C 0.36809 0.21954 0.90338 0.0
H169 H 0.18611 0.03892 0.89049 0.0
H170 H 0.32617 0.11129 0.85332 0.0
S171 S 0.33387 0.34155 1.00746 0.0
N172 N 0.24541 0.25436 1.00399 0.0
N173 N 0.39481 0.33331 0.96279 0.0
C174 C 0.34354 0.257 0.94264 0.0
C175 C 0.26286 0.2144 0.96493 0.0
C176 C 0.18376 0.28144 0.45641 0.0
C177 C 0.10226 0.2249 0.44167 0.0
C178 C 0.22459 0.36014 0.43383 0.0
C179 C 0.18494 0.38577 0.39641 0.0
H180 H 0.215 0.26589 0.48747 0.0
H181 H 0.2862 0.40292 0.4483 0.0
S182 S -0.02773 0.2591 0.34302 0.0
N183 N -0.01525 0.19705 0.38471 0.0
N184 N 0.0601 0.34725 0.34447 0.0
C185 C 0.10481 0.32836 0.37908 0.0
C186 C 0.06372 0.24722 0.40128 0.0
C187 C 0.81674 0.12182 0.89901 0.0
C188 C 0.77892 0.05924 0.93841 0.0
C189 C 0.77558 0.16093 0.8779 0.0
C190 C 0.69552 0.1376 0.89534 0.0
H191 H 0.88036 0.14494 0.88782 0.0
H192 H 0.80873 0.21345 0.8512 0.0
S193 S 0.56476 -0.03433 0.98866 0.0
N194 N 0.65361 -0.03214 0.98757 0.0
N195 N 0.57593 0.03996 0.94731 0.0
C196 C 0.65471 0.06971 0.93035 0.0
C197 C 0.69657 0.03078 0.95206 0.0
C198 C 0.62702 0.89188 0.45888 0.0
C199 C 0.68348 0.86801 0.44313 0.0
C200 C 0.5479 0.85446 0.43643 0.0
C201 C 0.52175 0.79076 0.39806 0.0
H202 H 0.64299 0.93752 0.49055 0.0
H203 H 0.50524 0.87237 0.45164 0.0
S204 S 0.64816 0.70889 0.34117 0.0
N205 N 0.71082 0.78166 0.38381 0.0
N206 N 0.55972 0.70751 0.34376 0.0
C207 C 0.57904 0.7693 0.37966 0.0
C208 C 0.66066 0.80897 0.40173 0.0
C209 C 0.79252 0.6852 0.90338 0.0
C210 C 0.85208 0.71004 0.94516 0.0
C211 C 0.75514 0.60523 0.88206 0.0
C212 C 0.77748 0.54877 0.90137 0.0
H213 H 0.7705 0.72555 0.89002 0.0
H214 H 0.70479 0.58594 0.85323 0.0
S215 S -0.05831 0.59025 1.00257 0.0
N216 N -0.06084 0.67629 0.99973 0.0
N217 N 0.87107 0.52739 0.95876 0.0
C218 C 0.84228 0.5759 0.93944 0.0
C219 C 0.87913 0.65631 0.96157 0.0
loop_
_geom_bond_atom_site_label_1
_geom_bond_atom_site_label_2
_geom_bond_distance
_geom_bond_site_symmetry_2
_ccdc_geom_bond_type
O0 Zn1 1.953 1_545 S
O0 C16 1.225 . S
Zn1 O0 1.953 1_565 S
Zn1 O2 1.949 1_566 S
Zn1 O8 1.919 1_455 S
Zn1 O13 1.924 1_465 S
O2 Zn1 1.949 1_544 S
O2 Zn3 1.923 1_445 S
O2 Zn4 1.950 . S
O2 Zn5 1.945 1_455 S
Zn3 O2 1.923 1_665 S
Zn3 O6 1.933 . S
Zn3 O9 1.941 1_554 S
Zn3 O10 1.965 1_655 S
Zn4 O2 1.950 . S
Zn4 O11 1.938 . S
Zn4 O12 1.906 . S
Zn4 O22 1.953 1_554 S
Zn5 O2 1.945 1_655 S
Zn5 O7 1.932 1_545 S
Zn5 O14 1.977 1_655 S
Zn5 O15 1.910 1_554 S
O6 Zn3 1.933 . S
O6 C17 1.226 . S
O7 Zn5 1.932 1_565 S
O7 C17 1.307 . S
O8 Zn1 1.919 1_655 S
O8 C19 1.253 . S
O9 Zn3 1.941 1_556 S
O9 C19 1.283 . S
O10 Zn3 1.965 1_455 S
O10 C18 1.303 . S
O11 Zn4 1.938 . S
O11 C18 1.247 1_545 S
O12 Zn4 1.906 . S
O12 C20 1.304 . S
O13 Zn1 1.924 1_645 S
O13 C21 1.311 . S
O14 Zn5 1.977 1_455 S
O14 C20 1.272 . S
O15 Zn5 1.910 1_556 S
O15 C21 1.231 . S
C16 O0 1.225 . S
C16 O22 1.298 . S
C17 O6 1.226 . S
C17 O7 1.307 . S
C18 O10 1.303 . S
C18 O11 1.247 1_565 S
C19 O8 1.253 . S
C19 O9 1.283 . S
C20 O12 1.304 . S
C20 O14 1.272 . S
C21 O13 1.311 . S
C21 O15 1.231 . S
O22 Zn4 1.953 1_556 S
O22 C16 1.298 . S
O23 Zn24 1.953 . S
O23 C39 1.225 . S
Zn24 O23 1.953 . S
Zn24 O25 1.949 . S
Zn24 O31 1.919 1_455 S
Zn24 O36 1.924 . S
O25 Zn24 1.949 . S
O25 Zn26 1.923 1_445 S
O25 Zn27 1.950 . S
O25 Zn28 1.945 1_545 S
Zn26 O25 1.923 1_665 S
Zn26 O29 1.933 . S
Zn26 O32 1.941 1_565 S
Zn26 O33 1.965 . S
Zn27 O25 1.950 . S
Zn27 O34 1.938 1_445 S
Zn27 O35 1.906 1_545 S
Zn27 O45 1.953 . S
Zn28 O25 1.945 1_565 S
Zn28 O30 1.932 1_455 S
Zn28 O37 1.977 . S
Zn28 O38 1.910 1_565 S
O29 Zn26 1.933 . S
O29 C40 1.226 . S
O30 Zn28 1.932 1_655 S
O30 C40 1.307 . S
O31 Zn24 1.919 1_655 S
O31 C42 1.253 . S
O32 Zn26 1.941 1_545 S
O32 C42 1.283 . S
O33 Zn26 1.965 . S
O33 C41 1.303 . S
O34 Zn27 1.938 1_665 S
O34 C41 1.247 . S
O35 Zn27 1.906 1_565 S
O35 C43 1.304 . S
O36 Zn24 1.924 . S
O36 C44 1.311 . S
O37 Zn28 1.977 . S
O37 C43 1.272 . S
O38 Zn28 1.910 1_545 S
O38 C44 1.231 . S
C39 O23 1.225 . S
C39 O45 1.298 . S
C40 O29 1.226 . S
C40 O30 1.307 . S
C41 O33 1.303 . S
C41 O34 1.247 . S
C42 O31 1.253 . S
C42 O32 1.283 . S
C43 O35 1.304 . S
C43 O37 1.272 . S
C44 O36 1.311 . S
C44 O38 1.231 . S
O45 Zn27 1.953 . S
O45 C39 1.298 . S
Zn46 O52 1.920 . S
Zn46 O58 1.898 . S
Zn46 O61 1.905 . S
Zn47 O55 1.905 . S
Zn47 O56 1.898 . S
Zn47 O64 1.920 . S
Zn48 O51 2.080 . S
Zn48 O54 2.114 . S
Zn48 O57 2.120 . S
Zn48 O59 2.120 . S
Zn48 O60 2.114 . S
Zn48 O63 2.080 . S
C49 O54 1.166 . S
C49 O55 1.182 . S
C50 O56 1.167 . S
C50 O57 1.299 . S
O51 Zn48 2.080 . S
O51 C65 1.305 . S
O52 Zn46 1.920 . S
O52 C65 1.234 . S
C53 O58 1.167 . S
C53 O59 1.299 . S
O54 Zn48 2.114 . S
O54 C49 1.166 . S
O55 Zn47 1.905 . S
O55 C49 1.182 . S
O56 Zn47 1.898 . S
O56 C50 1.167 . S
O57 Zn48 2.120 . S
O57 C50 1.299 . S
O58 Zn46 1.898 . S
O58 C53 1.167 . S
O59 Zn48 2.120 . S
O59 C53 1.299 . S
O60 Zn48 2.114 . S
O60 C62 1.166 . S
O61 Zn46 1.905 . S
O61 C62 1.182 . S
C62 O60 1.166 . S
C62 O61 1.182 . S
O63 Zn48 2.080 . S
O63 C66 1.305 . S
O64 Zn47 1.920 . S
O64 C66 1.234 . S
C65 O51 1.305 . S
C65 O52 1.234 . S
C66 O63 1.305 . S
C66 O64 1.234 . S
Zn67 O73 1.920 . S
Zn67 O79 1.898 . S
Zn67 O82 1.905 . S
Zn68 O76 1.905 . S
Zn68 O77 1.898 . S
Zn68 O85 1.920 . S
Zn69 O72 2.080 . S
Zn69 O75 2.114 . S
Zn69 O78 2.120 . S
Zn69 O80 2.120 . S
Zn69 O81 2.114 . S
Zn69 O84 2.080 . S
C70 O75 1.166 . S
C70 O76 1.182 . S
C71 O77 1.167 . S
C71 O78 1.299 . S
O72 Zn69 2.080 . S
O72 C86 1.305 . S
O73 Zn67 1.920 . S
O73 C86 1.234 . S
C74 O79 1.167 . S
C74 O80 1.299 . S
O75 Zn69 2.114 . S
O75 C70 1.166 . S
O76 Zn68 1.905 . S
O76 C70 1.182 . S
O77 Zn68 1.898 . S
O77 C71 1.167 . S
O78 Zn69 2.120 . S
O78 C71 1.299 . S
O79 Zn67 1.898 . S
O79 C74 1.167 . S
O80 Zn69 2.120 . S
O80 C74 1.299 . S
O81 Zn69 2.114 . S
O81 C83 1.166 . S
O82 Zn67 1.905 . S
O82 C83 1.182 . S
C83 O81 1.166 . S
C83 O82 1.182 . S
O84 Zn69 2.080 . S
O84 C87 1.305 . S
O85 Zn68 1.920 . S
O85 C87 1.234 . S
C86 O72 1.305 . S
C86 O73 1.234 . S
C87 O84 1.305 . S
C87 O85 1.234 . S
C88 C89 1.369 . S
C88 C90 1.419 . S
C88 H92 0.930 . S
C89 C88 1.369 . S
C89 C98 1.429 . S
C90 C88 1.419 . S
C90 C91 1.363 . S
C90 H93 0.929 . S
C91 C90 1.363 . S
C91 C97 1.428 . S
H92 C88 0.930 . S
H93 C90 0.929 . S
S94 N95 1.613 1_655 S
S94 N96 1.610 1_655 S
N95 S94 1.613 1_455 S
N95 C98 1.350 . S
N96 S94 1.610 1_455 S
N96 C97 1.351 . S
C97 C91 1.428 . S
C97 N96 1.351 . S
C97 C98 1.434 . S
C98 C89 1.429 . S
C98 N95 1.350 . S
C98 C97 1.434 . S
C99 C100 1.369 . S
C99 C101 1.419 . S
C99 H103 0.930 . S
C100 C99 1.369 . S
C100 C109 1.429 . S
C101 C99 1.419 . S
C101 C102 1.363 . S
C101 H104 0.929 . S
C102 C101 1.363 . S
C102 C108 1.428 . S
H103 C99 0.930 . S
H104 C101 0.929 . S
S105 N106 1.613 . S
S105 N107 1.610 . S
N106 S105 1.613 . S
N106 C109 1.350 . S
N107 S105 1.610 . S
N107 C108 1.351 . S
C108 C102 1.428 . S
C108 N107 1.351 . S
C108 C109 1.434 . S
C109 C100 1.429 . S
C109 N106 1.350 . S
C109 C108 1.434 . S
C110 C111 1.369 . S
C110 C112 1.419 . S
C110 H114 0.930 . S
C111 C110 1.369 . S
C111 C120 1.429 . S
C112 C110 1.419 . S
C112 C113 1.363 . S
C112 H115 0.929 . S
C113 C112 1.363 . S
C113 C119 1.428 . S
H114 C110 0.930 . S
H115 C112 0.929 . S
S116 N117 1.613 . S
S116 N118 1.610 . S
N117 S116 1.613 . S
N117 C120 1.350 . S
N118 S116 1.610 . S
N118 C119 1.351 . S
C119 C113 1.428 . S
C119 N118 1.351 . S
C119 C120 1.434 . S
C120 C111 1.429 . S
C120 N117 1.350 . S
C120 C119 1.434 . S
C121 C122 1.369 . S
C121 C123 1.419 . S
C121 H125 0.930 . S
C122 C121 1.369 . S
C122 C131 1.429 . S
C123 C121 1.419 . S
C123 C124 1.363 . S
C123 H126 0.929 . S
C124 C123 1.363 . S
C124 C130 1.428 . S
H125 C121 0.930 . S
H126 C123 0.929 . S
S127 N128 1.613 . S
S127 N129 1.610 . S
N128 S127 1.613 . S
N128 C131 1.350 . S
N129 S127 1.610 . S
N129 C130 1.351 . S
C130 C124 1.428 . S
C130 N129 1.351 . S
C130 C131 1.434 . S
C131 C122 1.429 . S
C131 N128 1.350 . S
C131 C130 1.434 . S
C132 C133 1.369 . S
C132 C134 1.419 . S
C132 H136 0.930 . S
C133 C132 1.369 . S
C133 C142 1.429 . S
C134 C132 1.419 . S
C134 C135 1.363 . S
C134 H137 0.929 . S
C135 C134 1.363 . S
C135 C141 1.428 . S
H136 C132 0.930 . S
H137 C134 0.929 . S
S138 N139 1.613 . S
S138 N140 1.610 . S
N139 S138 1.613 . S
N139 C142 1.350 . S
N140 S138 1.610 . S
N140 C141 1.351 . S
C141 C135 1.428 . S
C141 N140 1.351 . S
C141 C142 1.434 . S
C142 C133 1.429 . S
C142 N139 1.350 . S
C142 C141 1.434 . S
C143 C144 1.369 . S
C143 C145 1.419 . S
C143 H147 0.930 . S
C144 C143 1.369 . S
C144 C153 1.429 . S
C145 C143 1.419 . S
C145 C146 1.363 . S
C145 H148 0.929 . S
C146 C145 1.363 . S
C146 C152 1.428 . S
H147 C143 0.930 . S
H148 C145 0.929 . S
S149 N150 1.613 . S
S149 N151 1.610 . S
N150 S149 1.613 . S
N150 C153 1.350 . S
N151 S149 1.610 . S
N151 C152 1.351 . S
C152 C146 1.428 . S
C152 N151 1.351 . S
C152 C153 1.434 . S
C153 C144 1.429 . S
C153 N150 1.350 . S
C153 C152 1.434 . S
C154 C155 1.369 . S
C154 C156 1.419 . S
C154 H158 0.930 . S
C155 C154 1.369 . S
C155 C164 1.429 . S
C156 C154 1.419 . S
C156 C157 1.363 . S
C156 H159 0.929 . S
C157 C156 1.363 . S
C157 C163 1.428 . S
H158 C154 0.930 . S
H159 C156 0.929 . S
S160 N161 1.613 . S
S160 N162 1.610 . S
N161 S160 1.613 . S
N161 C164 1.350 . S
N162 S160 1.610 . S
N162 C163 1.351 . S
C163 C157 1.428 . S
C163 N162 1.351 . S
C163 C164 1.434 . S
C164 C155 1.429 . S
C164 N161 1.350 . S
C164 C163 1.434 . S
C165 C166 1.369 . S
C165 C167 1.419 . S
C165 H169 0.930 . S
C166 C165 1.369 . S
C166 C175 1.429 . S
C167 C165 1.419 . S
C167 C168 1.363 . S
C167 H170 0.929 . S
C168 C167 1.363 . S
C168 C174 1.428 . S
H169 C165 0.930 . S
H170 C167 0.929 . S
S171 N172 1.613 . S
S171 N173 1.610 . S
N172 S171 1.613 . S
N172 C175 1.350 . S
N173 S171 1.610 . S
N173 C174 1.351 . S
C174 C168 1.428 . S
C174 N173 1.351 . S
C174 C175 1.434 . S
C175 C166 1.429 . S
C175 N172 1.350 . S
C175 C174 1.434 . S
C176 C177 1.369 . S
C176 C178 1.419 . S
C176 H180 0.930 . S
C177 C176 1.369 . S
C177 C186 1.429 . S
C178 C176 1.419 . S
C178 C179 1.363 . S
C178 H181 0.929 . S
C179 C178 1.363 . S
C179 C185 1.428 . S
H180 C176 0.930 . S
H181 C178 0.929 . S
S182 N183 1.613 . S
S182 N184 1.610 . S
N183 S182 1.613 . S
N183 C186 1.350 . S
N184 S182 1.610 . S
N184 C185 1.351 . S
C185 C179 1.428 . S
C185 N184 1.351 . S
C185 C186 1.434 . S
C186 C177 1.429 . S
C186 N183 1.350 . S
C186 C185 1.434 . S
C187 C188 1.369 . S
C187 C189 1.419 . S
C187 H191 0.930 . S
C188 C187 1.369 . S
C188 C197 1.429 . S
C189 C187 1.419 . S
C189 C190 1.363 . S
C189 H192 0.929 . S
C190 C189 1.363 . S
C190 C196 1.428 . S
H191 C187 0.930 . S
H192 C189 0.929 . S
S193 N194 1.613 . S
S193 N195 1.610 . S
N194 S193 1.613 . S
N194 C197 1.350 . S
N195 S193 1.610 . S
N195 C196 1.351 . S
C196 C190 1.428 . S
C196 N195 1.351 . S
C196 C197 1.434 . S
C197 C188 1.429 . S
C197 N194 1.350 . S
C197 C196 1.434 . S
C198 C199 1.369 . S
C198 C200 1.419 . S
C198 H202 0.930 . S
C199 C198 1.369 . S
C199 C208 1.429 . S
C200 C198 1.419 . S
C200 C201 1.363 . S
C200 H203 0.929 . S
C201 C200 1.363 . S
C201 C207 1.428 . S
H202 C198 0.930 . S
H203 C200 0.929 . S
S204 N205 1.613 . S
S204 N206 1.610 . S
N205 S204 1.613 . S
N205 C208 1.350 . S
N206 S204 1.610 . S
N206 C207 1.351 . S
C207 C201 1.428 . S
C207 N206 1.351 . S
C207 C208 1.434 . S
C208 C199 1.429 . S
C208 N205 1.350 . S
C208 C207 1.434 . S
C209 C210 1.369 . S
C209 C211 1.419 . S
C209 H213 0.930 . S
C210 C209 1.369 . S
C210 C219 1.429 . S
C211 C209 1.419 . S
C211 C212 1.363 . S
C211 H214 0.929 . S
C212 C211 1.363 . S
C212 C218 1.428 . S
H213 C209 0.930 . S
H214 C211 0.929 . S
S215 N216 1.613 . S
S215 N217 1.610 . S
N216 S215 1.613 . S
N216 C219 1.350 . S
N217 S215 1.610 . S
N217 C218 1.351 . S
C218 C212 1.428 . S
C218 N217 1.351 . S
C218 C219 1.434 . S
C219 C210 1.429 . S
C219 N216 1.350 . S
C219 C218 1.434 . S
C89 C18 1.530 . S
C91 C65 1.392 . S
C100 C44 1.505 . S
C102 C71 1.355 . S
C111 C20 1.498 . S
C113 C62 1.435 . S
C122 C42 1.528 . S
C124 C87 1.468 . S
C133 C17 1.495 . S
C135 C53 1.327 . S
C146 C70 1.377 . S
C144 C40 1.527 . S
C155 C43 1.497 . S
C157 C66 1.361 . S
C168 C83 1.385 . S
C166 C16 1.536 . S
C179 C50 1.363 . S
C177 C39 1.526 . S
C190 C86 1.448 . S
C188 C21 1.483 . S
C201 C49 1.483 . S
C199 C41 1.505 . S
C212 C74 1.373 . S
C210 C19 1.485 . S
