# Generated by pormake.
# Topology bcu-b, (8,8)-cn, num edge types: 1
# Building blocks:
#     Node 0, Type 0, BuildingBlock: TAGTUT_clean_sbu_1, # of connection points: 8
#     Node 1, Type 1, BuildingBlock: GIZVER_clean_sbu_0, # of connection points: 8
#     Edge 2, Type (0, 1), BuildingBlock: AJUNOK_clean_linker_0, # of connection points: 2
#     Edge 3, Type (0, 1), BuildingBlock: AJUNOK_clean_linker_0, # of connection points: 2
#     Edge 4, Type (0, 1), BuildingBlock: AJUNOK_clean_linker_0, # of connection points: 2
#     Edge 5, Type (0, 1), BuildingBlock: AJUNOK_clean_linker_0, # of connection points: 2
#     Edge 6, Type (0, 1), BuildingBlock: AJUNOK_clean_linker_0, # of connection points: 2
#     Edge 7, Type (0, 1), BuildingBlock: AJUNOK_clean_linker_0, # of connection points: 2
#     Edge 8, Type (0, 1), BuildingBlock: AJUNOK_clean_linker_0, # of connection points: 2
#     Edge 9, Type (0, 1), BuildingBlock: AJUNOK_clean_linker_0, # of connection points: 2
# Relax obj value: 0.099
# Max RMSD: 0.171
# Mean RMSD: 0.166
data_MOF--net-bcu-b--node1-TAGTUT_clean_sbu_1--node2-GIZVER_clean_sbu_0--edge1-AJUNOK_clean_linker_0
_symmetry_space_group_name_H-M    P1
_symmetry_Int_Tables_number       1
_symmetry_cell_setting            triclinic
loop_
_symmetry_equiv_pos_as_xyz
'x, y, z'
_cell_length_a     16.374806
_cell_length_b     17.389586
_cell_length_c     13.7166
_cell_angle_alpha  88.143815
_cell_angle_beta   95.020979
_cell_angle_gamma 113.30733
loop_
_atom_site_label
_atom_site_type_symbol
_atom_site_fract_x
_atom_site_fract_y
_atom_site_fract_z
_atom_type_partial_charge
C0 C 0.84616 0.19609 0.10052 0.0
C1 C 0.9147 0.19446 0.80526 0.0
C2 C 0.84033 0.86574 0.87302 0.0
Mg3 Mg 1.01202 0.19885 0.00736 0.0
O4 O 0.95203 0.08431 0.02952 0.0
Mg5 Mg 0.83021 0.0323 0.96037 0.0
Mg6 Mg 1.00869 0.00955 0.98867 0.0
O7 O 0.06363 0.93358 0.94791 0.0
Mg8 Mg 1.00036 0.81918 0.97284 0.0
Mg9 Mg 0.18423 0.98391 0.01958 0.0
C10 C 0.17336 0.15331 0.10656 0.0
C11 C 0.17816 0.12294 0.86082 0.0
O12 O 0.79834 0.12677 0.05506 0.0
O13 O 0.93008 0.234 0.09311 0.0
O14 O 0.85695 0.12584 0.83446 0.0
O15 O 0.98774 0.23291 0.85707 0.0
O16 O 0.13935 0.20545 0.07442 0.0
O17 O 0.13173 0.0734 0.09597 0.0
C18 C 0.84468 0.89883 0.12356 0.0
O19 O 0.92419 0.91158 0.10278 0.0
O20 O 0.8014 0.93921 0.08153 0.0
O21 O 0.21385 0.88713 0.92709 0.0
O22 O 0.08167 0.78028 0.89064 0.0
O23 O 0.15584 0.89109 0.14537 0.0
C24 C 0.16582 0.81676 0.88378 0.0
O25 O 0.02468 0.78501 0.12342 0.0
O26 O 0.87199 0.81183 0.90503 0.0
C27 C 0.09808 0.82272 0.17482 0.0
O28 O 0.88449 0.9453 0.88267 0.0
O29 O 0.09728 0.11019 0.87694 0.0
O30 O 0.21671 0.07749 0.90016 0.0
Co31 Co 0.60072 0.3755 0.43572 0.0
Co32 Co 0.62701 0.42619 0.60971 0.0
Co33 Co 0.50882 0.51043 0.48901 0.0
O34 O 0.61361 0.47799 0.49694 0.0
H35 H 0.66881 0.52427 0.4849 0.0
O36 O 0.40394 0.54285 0.47986 0.0
Co37 Co 0.41527 0.64314 0.54468 0.0
Co38 Co 0.39374 0.59978 0.36877 0.0
H39 H 0.34836 0.49606 0.48916 0.0
O40 O 0.73918 0.44232 0.65649 0.0
O41 O 0.64235 0.33482 0.56192 0.0
O42 O 0.52919 0.38973 0.69025 0.0
O43 O 0.43725 0.42559 0.5876 0.0
O44 O 0.56879 0.59478 0.59371 0.0
O45 O 0.42036 0.73053 0.60876 0.0
O46 O 0.30438 0.60604 0.58628 0.0
O47 O 0.53523 0.69335 0.51734 0.0
O48 O 0.58051 0.59524 0.39095 0.0
O49 O 0.4972 0.64778 0.2964 0.0
O50 O 0.37162 0.68582 0.42083 0.0
O51 O 0.28198 0.58169 0.31744 0.0
C52 C 0.67515 0.33517 0.35664 0.0
C53 C 0.4351 0.34928 0.39609 0.0
C54 C 0.45214 0.38815 0.66464 0.0
C55 C 0.71926 0.37083 0.61348 0.0
C56 C 0.34019 0.68047 0.62659 0.0
C57 C 0.5811 0.67166 0.58375 0.0
C58 C 0.57102 0.64179 0.3206 0.0
C59 C 0.29651 0.64936 0.36621 0.0
O60 O 0.59454 0.2861 0.37418 0.0
O61 O 0.71195 0.41011 0.39547 0.0
O62 O 0.44908 0.42642 0.38506 0.0
O63 O 0.48057 0.32733 0.46266 0.0
C64 C 0.31146 0.27467 0.15202 0.0
C65 C 0.25733 0.19032 0.16887 0.0
C66 C 0.37302 0.32361 0.22431 0.0
C67 C 0.38244 0.29064 0.31728 0.0
H68 H 0.30127 0.30536 0.08479 0.0
H69 H 0.40985 0.38923 0.20855 0.0
S70 S 0.26715 0.07027 0.3947 0.0
N71 N 0.22495 0.07273 0.28123 0.0
N72 N 0.3417 0.16604 0.41921 0.0
C73 C 0.33546 0.20448 0.33275 0.0
C74 C 0.2725 0.15389 0.25793 0.0
C75 C 0.71364 0.21837 0.14972 0.0
C76 C 0.80442 0.23314 0.16645 0.0
C77 C 0.67325 0.25314 0.21116 0.0
C78 C 0.72211 0.30409 0.29137 0.0
H79 H 0.67357 0.18015 0.08842 0.0
H80 H 0.60299 0.24014 0.1955 0.0
S81 S 0.95851 0.3536 0.37458 0.0
N82 N 0.94046 0.29717 0.27429 0.0
N83 N 0.86363 0.36269 0.38885 0.0
C84 C 0.81239 0.31865 0.30999 0.0
C85 C 0.85373 0.283 0.24778 0.0
C86 C 0.7411 0.85254 0.2539 0.0
C87 C 0.795 0.83327 0.19257 0.0
C88 C 0.67068 0.7896 0.29684 0.0
C89 C 0.65172 0.7047 0.28118 0.0
H90 H 0.74983 0.91702 0.26368 0.0
H91 H 0.62881 0.80754 0.34028 0.0
S92 S 0.77699 0.62003 0.1347 0.0
N93 N 0.82757 0.72272 0.12303 0.0
N94 N 0.69645 0.60381 0.20755 0.0
C95 C 0.70867 0.68401 0.2262 0.0
C96 C 0.78024 0.74855 0.18104 0.0
C97 C 0.21291 0.8212 0.30718 0.0
C98 C 0.13006 0.77777 0.25372 0.0
C99 C 0.2636 0.77879 0.35188 0.0
C100 C 0.23336 0.69132 0.3448 0.0
H101 H 0.2428 0.88901 0.30706 0.0
H102 H 0.32992 0.81541 0.38471 0.0
S103 S 1.01039 0.54692 0.23843 0.0
N104 N 1.01235 0.64129 0.21523 0.0
N105 N 0.10705 0.56163 0.29915 0.0
C106 C 0.14562 0.64664 0.30347 0.0
C107 C 0.09388 0.68983 0.25836 0.0
C108 C 0.30107 0.81156 0.81775 0.0
C109 C 0.20793 0.77769 0.82027 0.0
C110 C 0.34244 0.77868 0.75557 0.0
C111 C 0.29263 0.71038 0.69311 0.0
H112 H 0.34278 0.8644 0.8637 0.0
H113 H 0.41453 0.80749 0.75669 0.0
S114 S 0.04678 0.59862 0.6697 0.0
N115 N 0.06651 0.67112 0.75361 0.0
N116 N 0.14547 0.60987 0.63697 0.0
C117 C 0.19966 0.67496 0.69524 0.0
C118 C 0.15706 0.7085 0.75861 0.0
C119 C 0.22083 0.22968 0.72267 0.0
C120 C 0.23943 0.20134 0.81582 0.0
C121 C 0.28854 0.29444 0.67545 0.0
C122 C 0.37635 0.33295 0.72045 0.0
H123 H 0.15583 0.19851 0.68389 0.0
H124 H 0.27332 0.311 0.60129 0.0
S125 S 0.45479 0.28926 0.96975 0.0
N126 N 0.34994 0.22234 0.95419 0.0
N127 N 0.47367 0.34461 0.86823 0.0
C128 C 0.39285 0.30937 0.81647 0.0
C129 C 0.32534 0.24349 0.86333 0.0
C130 C 0.91434 0.32743 0.73243 0.0
C131 C 0.88328 0.23978 0.72678 0.0
C132 C 0.86362 0.36984 0.68863 0.0
C133 C 0.78025 0.32668 0.63652 0.0
H134 H 0.97356 0.36292 0.77906 0.0
H135 H 0.8873 0.43644 0.70193 0.0
S136 S 0.68251 0.10011 0.57603 0.0
N137 N 0.7737 0.11344 0.64747 0.0
N138 N 0.67887 0.19356 0.56427 0.0
C139 C 0.75464 0.24074 0.6189 0.0
C140 C 0.80619 0.19729 0.66409 0.0
C141 C 0.75261 0.86262 0.715 0.0
C142 C 0.75622 0.83211 0.81086 0.0
C143 C 0.69076 0.81235 0.64185 0.0
C144 C 0.63186 0.73052 0.66312 0.0
H145 H 0.80314 0.92184 0.69423 0.0
H146 H 0.6939 0.83496 0.56715 0.0
S147 S 0.60055 0.63131 0.90812 0.0
N148 N 0.68509 0.72256 0.92693 0.0
N149 N 0.56933 0.62802 0.79 0.0
C150 C 0.62822 0.70369 0.76094 0.0
C151 C 0.69027 0.75483 0.83494 0.0
loop_
_geom_bond_atom_site_label_1
_geom_bond_atom_site_label_2
_geom_bond_distance
_geom_bond_site_symmetry_2
_ccdc_geom_bond_type
C0 O12 1.241 . S
C0 O13 1.280 . S
C1 O14 1.277 . S
C1 O15 1.245 . S
C2 O26 1.247 . S
C2 O28 1.289 . S
Mg3 O4 1.926 . S
Mg3 O13 1.984 . S
Mg3 O15 1.988 1_554 S
Mg3 O16 2.061 1_655 S
O4 Mg3 1.926 . S
O4 Mg5 1.986 1_544 S
O4 Mg6 1.918 1_655 S
Mg5 O4 1.986 1_566 S
Mg5 O12 2.042 1_566 S
Mg5 O14 2.041 1_565 S
Mg5 O20 2.038 1_556 S
Mg5 O28 2.238 . S
Mg6 O4 1.918 1_455 S
Mg6 O7 1.916 1_544 S
Mg6 O17 2.107 . S
Mg6 O19 2.078 1_445 S
Mg6 O28 2.106 1_444 S
Mg6 O29 2.079 1_554 S
O7 Mg6 1.916 1_566 S
O7 Mg8 1.926 . S
O7 Mg9 1.986 1_566 S
Mg8 O7 1.926 . S
Mg8 O22 1.984 . S
Mg8 O25 1.988 1_556 S
Mg8 O26 2.061 1_455 S
Mg9 O7 1.986 1_544 S
Mg9 O17 2.238 . S
Mg9 O21 2.042 1_544 S
Mg9 O23 2.041 1_545 S
Mg9 O30 2.038 1_554 S
C10 O16 1.247 . S
C10 O17 1.289 . S
C11 O29 1.245 . S
C11 O30 1.274 . S
O12 C0 1.241 . S
O12 Mg5 2.042 1_544 S
O13 C0 1.280 . S
O13 Mg3 1.984 . S
O14 C1 1.277 . S
O14 Mg5 2.041 1_545 S
O15 C1 1.245 . S
O15 Mg3 1.988 1_556 S
O16 Mg3 2.061 1_455 S
O16 C10 1.247 . S
O17 Mg6 2.107 . S
O17 Mg9 2.238 . S
O17 C10 1.289 . S
C18 O19 1.245 . S
C18 O20 1.274 . S
O19 Mg6 2.078 1_665 S
O19 C18 1.245 . S
O20 Mg5 2.038 1_554 S
O20 C18 1.274 . S
O21 Mg9 2.042 1_566 S
O21 C24 1.241 . S
O22 Mg8 1.984 . S
O22 C24 1.280 . S
O23 Mg9 2.041 1_565 S
O23 C27 1.277 . S
C24 O21 1.241 . S
C24 O22 1.280 . S
O25 Mg8 1.988 1_554 S
O25 C27 1.245 . S
O26 C2 1.247 . S
O26 Mg8 2.061 1_655 S
C27 O23 1.277 . S
C27 O25 1.245 . S
O28 C2 1.289 . S
O28 Mg5 2.238 . S
O28 Mg6 2.106 1_666 S
O29 Mg6 2.079 1_556 S
O29 C11 1.245 . S
O30 Mg9 2.038 1_556 S
O30 C11 1.274 . S
Co31 O34 2.042 . S
Co31 O41 2.264 . S
Co31 O60 2.286 . S
Co31 O61 2.069 . S
Co31 O63 2.015 . S
Co32 O34 2.122 . S
Co32 O40 2.073 . S
Co32 O41 2.327 . S
Co32 O42 1.976 . S
Co33 O34 2.087 . S
Co33 O36 2.087 . S
Co33 O43 2.111 . S
Co33 O44 2.143 . S
Co33 O48 2.111 . S
Co33 O62 2.143 . S
O34 Co31 2.042 . S
O34 Co32 2.122 . S
O34 Co33 2.087 . S
O34 H35 0.980 . S
H35 O34 0.980 . S
O36 Co33 2.087 . S
O36 Co37 2.042 . S
O36 Co38 2.122 . S
O36 H39 0.980 . S
Co37 O36 2.042 . S
Co37 O45 2.286 . S
Co37 O46 2.069 . S
Co37 O47 2.015 . S
Co37 O50 2.264 . S
Co38 O36 2.122 . S
Co38 O49 1.976 . S
Co38 O50 2.327 . S
Co38 O51 2.073 . S
H39 O36 0.980 . S
O40 Co32 2.073 . S
O40 C55 1.245 . S
O41 Co31 2.264 . S
O41 Co32 2.327 . S
O41 C55 1.257 . S
O42 Co32 1.976 . S
O42 C54 1.251 . S
O43 Co33 2.111 . S
O43 C54 1.274 . S
O44 Co33 2.143 . S
O44 C57 1.246 . S
O45 Co37 2.286 . S
O45 C56 1.259 . S
O46 Co37 2.069 . S
O46 C56 1.289 . S
O47 Co37 2.015 . S
O47 C57 1.257 . S
O48 Co33 2.111 . S
O48 C58 1.274 . S
O49 Co38 1.976 . S
O49 C58 1.251 . S
O50 Co37 2.264 . S
O50 Co38 2.327 . S
O50 C59 1.257 . S
O51 Co38 2.073 . S
O51 C59 1.245 . S
C52 O60 1.259 . S
C52 O61 1.289 . S
C53 O62 1.246 . S
C53 O63 1.257 . S
C54 O42 1.251 . S
C54 O43 1.274 . S
C55 O40 1.245 . S
C55 O41 1.257 . S
C56 O45 1.259 . S
C56 O46 1.289 . S
C57 O44 1.246 . S
C57 O47 1.257 . S
C58 O48 1.274 . S
C58 O49 1.251 . S
C59 O50 1.257 . S
C59 O51 1.245 . S
O60 Co31 2.286 . S
O60 C52 1.259 . S
O61 Co31 2.069 . S
O61 C52 1.289 . S
O62 Co33 2.143 . S
O62 C53 1.246 . S
O63 Co31 2.015 . S
O63 C53 1.257 . S
C64 C65 1.369 . S
C64 C66 1.419 . S
C64 H68 0.930 . S
C65 C64 1.369 . S
C65 C74 1.429 . S
C66 C64 1.419 . S
C66 C67 1.363 . S
C66 H69 0.929 . S
C67 C66 1.363 . S
C67 C73 1.428 . S
H68 C64 0.930 . S
H69 C66 0.929 . S
S70 N71 1.613 . S
S70 N72 1.610 . S
N71 S70 1.613 . S
N71 C74 1.350 . S
N72 S70 1.610 . S
N72 C73 1.351 . S
C73 C67 1.428 . S
C73 N72 1.351 . S
C73 C74 1.434 . S
C74 C65 1.429 . S
C74 N71 1.350 . S
C74 C73 1.434 . S
C75 C76 1.369 . S
C75 C77 1.419 . S
C75 H79 0.930 . S
C76 C75 1.369 . S
C76 C85 1.429 . S
C77 C75 1.419 . S
C77 C78 1.363 . S
C77 H80 0.929 . S
C78 C77 1.363 . S
C78 C84 1.428 . S
H79 C75 0.930 . S
H80 C77 0.929 . S
S81 N82 1.613 . S
S81 N83 1.610 . S
N82 S81 1.613 . S
N82 C85 1.350 . S
N83 S81 1.610 . S
N83 C84 1.351 . S
C84 C78 1.428 . S
C84 N83 1.351 . S
C84 C85 1.434 . S
C85 C76 1.429 . S
C85 N82 1.350 . S
C85 C84 1.434 . S
C86 C87 1.369 . S
C86 C88 1.419 . S
C86 H90 0.930 . S
C87 C86 1.369 . S
C87 C96 1.429 . S
C88 C86 1.419 . S
C88 C89 1.363 . S
C88 H91 0.929 . S
C89 C88 1.363 . S
C89 C95 1.428 . S
H90 C86 0.930 . S
H91 C88 0.929 . S
S92 N93 1.613 . S
S92 N94 1.610 . S
N93 S92 1.613 . S
N93 C96 1.350 . S
N94 S92 1.610 . S
N94 C95 1.351 . S
C95 C89 1.428 . S
C95 N94 1.351 . S
C95 C96 1.434 . S
C96 C87 1.429 . S
C96 N93 1.350 . S
C96 C95 1.434 . S
C97 C98 1.369 . S
C97 C99 1.419 . S
C97 H101 0.930 . S
C98 C97 1.369 . S
C98 C107 1.429 . S
C99 C97 1.419 . S
C99 C100 1.363 . S
C99 H102 0.929 . S
C100 C99 1.363 . S
C100 C106 1.428 . S
H101 C97 0.930 . S
H102 C99 0.929 . S
S103 N104 1.613 . S
S103 N105 1.610 . S
N104 S103 1.613 . S
N104 C107 1.350 . S
N105 S103 1.610 . S
N105 C106 1.351 . S
C106 C100 1.428 . S
C106 N105 1.351 . S
C106 C107 1.434 . S
C107 C98 1.429 . S
C107 N104 1.350 . S
C107 C106 1.434 . S
C108 C109 1.369 . S
C108 C110 1.419 . S
C108 H112 0.930 . S
C109 C108 1.369 . S
C109 C118 1.429 . S
C110 C108 1.419 . S
C110 C111 1.363 . S
C110 H113 0.929 . S
C111 C110 1.363 . S
C111 C117 1.428 . S
H112 C108 0.930 . S
H113 C110 0.929 . S
S114 N115 1.613 . S
S114 N116 1.610 . S
N115 S114 1.613 . S
N115 C118 1.350 . S
N116 S114 1.610 . S
N116 C117 1.351 . S
C117 C111 1.428 . S
C117 N116 1.351 . S
C117 C118 1.434 . S
C118 C109 1.429 . S
C118 N115 1.350 . S
C118 C117 1.434 . S
C119 C120 1.369 . S
C119 C121 1.419 . S
C119 H123 0.930 . S
C120 C119 1.369 . S
C120 C129 1.429 . S
C121 C119 1.419 . S
C121 C122 1.363 . S
C121 H124 0.929 . S
C122 C121 1.363 . S
C122 C128 1.428 . S
H123 C119 0.930 . S
H124 C121 0.929 . S
S125 N126 1.613 . S
S125 N127 1.610 . S
N126 S125 1.613 . S
N126 C129 1.350 . S
N127 S125 1.610 . S
N127 C128 1.351 . S
C128 C122 1.428 . S
C128 N127 1.351 . S
C128 C129 1.434 . S
C129 C120 1.429 . S
C129 N126 1.350 . S
C129 C128 1.434 . S
C130 C131 1.369 . S
C130 C132 1.419 . S
C130 H134 0.930 . S
C131 C130 1.369 . S
C131 C140 1.429 . S
C132 C130 1.419 . S
C132 C133 1.363 . S
C132 H135 0.929 . S
C133 C132 1.363 . S
C133 C139 1.428 . S
H134 C130 0.930 . S
H135 C132 0.929 . S
S136 N137 1.613 . S
S136 N138 1.610 . S
N137 S136 1.613 . S
N137 C140 1.350 . S
N138 S136 1.610 . S
N138 C139 1.351 . S
C139 C133 1.428 . S
C139 N138 1.351 . S
C139 C140 1.434 . S
C140 C131 1.429 . S
C140 N137 1.350 . S
C140 C139 1.434 . S
C141 C142 1.369 . S
C141 C143 1.419 . S
C141 H145 0.930 . S
C142 C141 1.369 . S
C142 C151 1.429 . S
C143 C141 1.419 . S
C143 C144 1.363 . S
C143 H146 0.929 . S
C144 C143 1.363 . S
C144 C150 1.428 . S
H145 C141 0.930 . S
H146 C143 0.929 . S
S147 N148 1.613 . S
S147 N149 1.610 . S
N148 S147 1.613 . S
N148 C151 1.350 . S
N149 S147 1.610 . S
N149 C150 1.351 . S
C150 C144 1.428 . S
C150 N149 1.351 . S
C150 C151 1.434 . S
C151 C142 1.429 . S
C151 N148 1.350 . S
C151 C150 1.434 . S
C65 C10 1.283 . S
C67 C53 1.295 . S
C76 C0 1.550 . S
C78 C52 1.588 . S
C87 C18 1.546 . S
C89 C58 1.510 . S
C98 C27 1.566 . S
C100 C59 1.535 . S
C109 C24 1.545 . S
C111 C56 1.589 . S
C122 C54 1.510 . S
C120 C11 1.546 . S
C131 C1 1.566 . S
C133 C55 1.538 . S
C144 C57 1.289 . S
C142 C2 1.281 . S
