# Generated by pormake.
# Topology scu, (8,4)-cn, num edge types: 1
# Building blocks:
#     Node 0, Type 0, BuildingBlock: TAGTUT_clean_sbu_3, # of connection points: 8
#     Node 1, Type 1, BuildingBlock: NAWXER_clean_sbu_0, # of connection points: 4
#     Node 2, Type 1, BuildingBlock: NAWXER_clean_sbu_0, # of connection points: 4
#     Edge 3, Type (0, 1), BuildingBlock: OJICUG_clean_linker_0, # of connection points: 2
#     Edge 4, Type (0, 1), BuildingBlock: OJICUG_clean_linker_0, # of connection points: 2
#     Edge 5, Type (0, 1), BuildingBlock: OJICUG_clean_linker_0, # of connection points: 2
#     Edge 6, Type (0, 1), BuildingBlock: OJICUG_clean_linker_0, # of connection points: 2
#     Edge 7, Type (0, 1), BuildingBlock: OJICUG_clean_linker_0, # of connection points: 2
#     Edge 8, Type (0, 1), BuildingBlock: OJICUG_clean_linker_0, # of connection points: 2
#     Edge 9, Type (0, 1), BuildingBlock: OJICUG_clean_linker_0, # of connection points: 2
#     Edge 10, Type (0, 1), BuildingBlock: OJICUG_clean_linker_0, # of connection points: 2
# Relax obj value: 0.033
# Max RMSD: 0.098
# Mean RMSD: 0.068
data_MOF--net-scu--node1-TAGTUT_clean_sbu_3--node2-NAWXER_clean_sbu_0--edge1-OJICUG_clean_linker_0
_symmetry_space_group_name_H-M    P1
_symmetry_Int_Tables_number       1
_symmetry_cell_setting            triclinic
loop_
_symmetry_equiv_pos_as_xyz
'x, y, z'
_cell_length_a     19.913838
_cell_length_b     16.55831
_cell_length_c     15.311117
_cell_angle_alpha  90.588894
_cell_angle_beta   89.554898
_cell_angle_gamma 90.644145
loop_
_atom_site_label
_atom_site_type_symbol
_atom_site_fract_x
_atom_site_fract_y
_atom_site_fract_z
_atom_type_partial_charge
C0 C 0.98592 0.84457 0.10284 0.0
C1 C 0.7639 0.98255 0.06621 0.0
C2 C 0.83752 0.05819 0.81366 0.0
Mg3 Mg 0.13889 0.89674 0.03367 0.0
Mg4 Mg 0.17311 0.085 0.97474 0.0
O5 O 0.11764 0.99326 0.96212 0.0
Mg6 Mg 1.02063 0.00186 -0.01243 0.0
O7 O 0.92371 0.0053 0.01342 0.0
Mg8 Mg 0.89345 0.90854 0.94474 0.0
Mg9 Mg 0.87581 0.10188 0.00224 0.0
C10 C 0.05493 0.15935 0.86297 0.0
O11 O 0.03692 0.10459 0.08754 0.0
O12 O 0.24292 0.89972 0.95693 0.0
O13 O 0.94712 0.18411 0.06943 0.0
O14 O 0.18529 0.97386 0.1455 0.0
O15 O 0.25938 0.02941 0.91771 0.0
O16 O 0.1952 0.10405 0.11097 0.0
O17 O 1.00247 0.90116 0.88238 0.0
O18 O 0.09186 0.82945 0.92357 0.0
C19 C 0.04187 0.84 0.8734 0.0
C20 C 0.27736 0.95536 0.91798 0.0
O21 O 1.01446 0.10214 0.88481 0.0
O22 O 0.79204 0.9242 0.0237 0.0
O23 O 0.11454 0.16649 0.89425 0.0
O24 O 0.85139 0.98528 0.83303 0.0
O25 O 0.78823 0.05468 0.06754 0.0
O26 O 0.84744 0.11624 0.86766 0.0
O27 O 0.02958 0.90222 0.09325 0.0
O28 O 0.93459 0.83866 0.05396 0.0
C29 C 0.20174 0.04675 0.16534 0.0
C30 C 1.00545 0.17063 0.10175 0.0
C31 C 0.06699 0.60673 0.59518 0.0
C32 C 0.08407 0.4047 0.35507 0.0
O33 O 0.12356 0.58364 0.56417 0.0
Zn34 Zn 0.08923 0.5033 0.47859 0.0
O35 O 1.01293 0.57421 0.56742 0.0
Zn36 Zn 0.97566 0.49059 0.47869 0.0
O37 O 0.93943 0.40602 0.55958 0.0
O38 O 0.04993 0.41603 0.55985 0.0
O39 O 0.02597 0.4222 0.38474 0.0
O40 O 0.13662 0.43557 0.39 0.0
O41 O 0.04067 0.58205 0.39801 0.0
O42 O 0.93034 0.56724 0.40061 0.0
C43 C 0.99615 0.38232 0.58755 0.0
C44 C 0.98312 0.6038 0.37242 0.0
C45 C 0.62468 0.06718 0.56798 0.0
C46 C 0.40569 0.06308 0.42335 0.0
O47 O 0.60255 -0.00389 0.54917 0.0
Zn48 Zn 0.51714 0.93881 0.4899 0.0
O49 O 0.58939 0.1284 0.55013 0.0
Zn50 Zn 0.51482 0.06919 0.49695 0.0
O51 O 0.47255 0.00825 0.60675 0.0
O52 O 0.47767 0.87627 0.58627 0.0
O53 O 0.43827 0.12556 0.44845 0.0
O54 O 0.43029 0.9929 0.43548 0.0
O55 O 0.55883 0.88677 0.38753 0.0
O56 O 0.56054 0.0199 0.38236 0.0
C57 C 0.4611 0.9364 0.63391 0.0
C58 C 0.57458 0.95142 0.3475 0.0
C59 C 1.02086 0.31479 0.14806 0.0
C60 C 0.03745 0.23335 0.158 0.0
H61 H 0.02673 0.4344 0.20162 0.0
C62 C 0.08244 0.21241 0.22455 0.0
H63 H 0.98723 0.33309 0.0968 0.0
C64 C 0.10588 0.27099 0.2843 0.0
C65 C 0.08505 0.3513 0.27767 0.0
H66 H 0.09573 0.14996 0.23423 0.0
H67 H 0.13522 0.25222 0.33967 0.0
C68 C 0.04458 0.37304 0.20704 0.0
C69 C 0.69806 0.8922 0.16788 0.0
C70 C 0.70535 0.96611 0.12389 0.0
H71 H 0.65047 0.82898 0.2742 0.0
C72 C 0.6621 0.02959 0.1459 0.0
H73 H 0.73099 0.84231 0.15258 0.0
C74 C 0.61645 0.022 0.2148 0.0
C75 C 0.61296 0.95085 0.26405 0.0
H76 H 0.6659 0.08692 0.11262 0.0
H77 H 0.58614 0.07375 0.2322 0.0
C78 C 0.65215 0.88464 0.23768 0.0
C79 C 0.92505 0.74893 0.20101 0.0
C80 C 0.98583 0.78875 0.17762 0.0
H81 H 0.87611 0.65987 0.28057 0.0
C82 C 0.04404 0.77173 0.22378 0.0
H83 H 0.87849 0.76181 0.16805 0.0
C84 C 0.04211 0.71309 0.28887 0.0
C85 C 0.98187 0.67068 0.30926 0.0
H86 H 0.09117 0.80165 0.2079 0.0
H87 H 0.08852 0.6999 0.322 0.0
C88 C 0.92311 0.69063 0.26599 0.0
C89 C 0.27848 0.1326 0.25869 0.0
C90 C 0.24032 0.0612 0.24673 0.0
H91 H 0.36127 0.18973 0.32508 0.0
C92 C 0.249 -0.00252 0.30537 0.0
H93 H 0.27273 0.18316 0.21515 0.0
C94 C 0.29975 0.00119 0.36758 0.0
C95 C 0.34265 0.06894 0.37331 0.0
H96 H 0.21982 0.94212 0.29928 0.0
H97 H 0.30791 0.94878 0.4078 0.0
C98 C 0.32929 0.13646 0.32166 0.0
C99 C 0.10836 0.77472 0.7556 0.0
C100 C 0.04464 0.79126 0.79252 0.0
H101 H 0.1659 0.70306 0.66556 0.0
C102 C 0.98812 0.75108 0.75988 0.0
H103 H 0.15298 0.80569 0.77935 0.0
C104 C 0.99584 0.6919 0.69478 0.0
C105 C 0.0602 0.67207 0.66126 0.0
H106 H 0.93885 0.76221 0.78767 0.0
H107 H 0.95123 0.6601 0.67251 0.0
C108 C 0.11612 0.71563 0.69089 0.0
C109 C 0.38734 0.99274 0.85231 0.0
C110 C 0.33584 0.9349 0.86208 0.0
H111 H 0.46792 0.03736 0.77305 0.0
C112 C 0.33388 0.86816 0.8044 0.0
H113 H 0.39034 0.04454 0.89602 0.0
C114 C 0.37868 0.86409 0.73295 0.0
C115 C 0.42558 0.92686 0.71863 0.0
H116 H 0.29421 0.82314 0.80989 0.0
H117 H 0.37295 0.81565 0.68543 0.0
C118 C 0.43157 0.98881 0.78151 0.0
C119 C 0.0842 0.23264 0.7282 0.0
C120 C 0.03582 0.2134 0.79142 0.0
H121 H 0.1082 0.29691 0.61285 0.0
C122 C 0.97046 0.2442 0.78327 0.0
H123 H 0.13441 0.20828 0.73149 0.0
C124 C 0.95495 0.29664 0.71454 0.0
C125 C 1.00468 0.31792 0.65305 0.0
H126 H 0.93238 0.2303 0.83169 0.0
H127 H 0.9054 0.32269 0.71153 0.0
C128 C 0.06873 0.28325 0.65971 0.0
C129 C 0.75659 0.14113 0.7279 0.0
C130 C 0.79637 0.07167 0.73484 0.0
H131 H 0.67037 0.19454 0.66905 0.0
C132 C 0.78629 0.00793 0.67493 0.0
H133 H 0.76316 0.19155 0.77276 0.0
C134 C 0.73307 0.0095 0.61635 0.0
C135 C 0.68887 0.07507 0.61573 0.0
H136 H 0.81654 0.95402 0.67738 0.0
H137 H 0.72433 0.95708 0.57487 0.0
C138 C 0.70319 0.14281 0.66869 0.0
loop_
_geom_bond_atom_site_label_1
_geom_bond_atom_site_label_2
_geom_bond_distance
_geom_bond_site_symmetry_2
_ccdc_geom_bond_type
C0 O27 1.312 1_655 S
C0 O28 1.208 . S
C1 O22 1.331 . S
C1 O25 1.244 1_565 S
C2 O24 1.264 1_545 S
C2 O26 1.273 . S
Mg3 O5 1.936 1_565 S
Mg3 O12 2.081 . S
Mg3 O14 2.023 1_556 S
Mg3 O18 2.031 . S
Mg3 O27 2.291 1_556 S
Mg4 O5 1.963 . S
Mg4 O15 1.942 . S
Mg4 O16 1.955 1_556 S
Mg4 O23 1.986 . S
O5 Mg3 1.936 1_545 S
O5 Mg4 1.963 . S
O5 Mg6 1.915 1_556 S
Mg6 O5 1.915 1_554 S
Mg6 O7 1.915 1_455 S
Mg6 O11 2.013 . S
Mg6 O17 2.114 1_444 S
Mg6 O21 2.013 1_454 S
Mg6 O27 2.114 1_545 S
O7 Mg6 1.915 1_655 S
O7 Mg8 1.936 1_545 S
O7 Mg9 1.963 . S
Mg8 O7 1.936 1_565 S
Mg8 O17 2.291 1_554 S
Mg8 O22 2.081 . S
Mg8 O24 2.023 1_554 S
Mg8 O28 2.031 . S
Mg9 O7 1.963 . S
Mg9 O13 1.986 . S
Mg9 O25 1.942 . S
Mg9 O26 1.955 1_554 S
C10 O21 1.191 1_455 S
C10 O23 1.307 . S
O11 Mg6 2.013 . S
O11 C30 1.191 1_455 S
O12 Mg3 2.081 . S
O12 C20 1.331 . S
O13 Mg9 1.986 . S
O13 C30 1.307 . S
O14 Mg3 2.023 1_554 S
O14 C29 1.264 1_565 S
O15 Mg4 1.942 . S
O15 C20 1.244 1_545 S
O16 Mg4 1.955 1_554 S
O16 C29 1.273 . S
O17 Mg6 2.114 1_666 S
O17 Mg8 2.291 1_556 S
O17 C19 1.312 1_655 S
O18 Mg3 2.031 . S
O18 C19 1.208 . S
C19 O17 1.312 1_455 S
C19 O18 1.208 . S
C20 O12 1.331 . S
C20 O15 1.244 1_565 S
O21 Mg6 2.013 1_656 S
O21 C10 1.191 1_655 S
O22 C1 1.331 . S
O22 Mg8 2.081 . S
O23 Mg4 1.986 . S
O23 C10 1.307 . S
O24 C2 1.264 1_565 S
O24 Mg8 2.023 1_556 S
O25 C1 1.244 1_545 S
O25 Mg9 1.942 . S
O26 C2 1.273 . S
O26 Mg9 1.955 1_556 S
O27 C0 1.312 1_455 S
O27 Mg3 2.291 1_554 S
O27 Mg6 2.114 1_565 S
O28 C0 1.208 . S
O28 Mg8 2.031 . S
C29 O14 1.264 1_545 S
C29 O16 1.273 . S
C30 O11 1.191 1_655 S
C30 O13 1.307 . S
C31 O33 1.251 . S
C31 O35 1.254 1_455 S
C32 O39 1.247 . S
C32 O40 1.258 1_655 S
O33 C31 1.251 . S
O33 Zn34 2.028 . S
Zn34 O33 2.028 . S
Zn34 O38 2.035 . S
Zn34 O40 2.035 . S
Zn34 O41 2.028 . S
O35 C31 1.254 1_655 S
O35 Zn36 2.035 . S
Zn36 O35 2.035 . S
Zn36 O37 2.028 . S
Zn36 O39 2.028 . S
Zn36 O42 2.035 . S
O37 Zn36 2.028 . S
O37 C43 1.247 . S
O38 Zn34 2.035 . S
O38 C43 1.258 1_455 S
O39 C32 1.247 . S
O39 Zn36 2.028 . S
O40 C32 1.258 1_455 S
O40 Zn34 2.035 . S
O41 Zn34 2.028 . S
O41 C44 1.251 . S
O42 Zn36 2.035 . S
O42 C44 1.254 1_655 S
C43 O37 1.247 . S
C43 O38 1.258 1_655 S
C44 O41 1.251 . S
C44 O42 1.254 1_455 S
C45 O47 1.247 1_545 S
C45 O49 1.258 . S
C46 O53 1.247 . S
C46 O54 1.258 1_545 S
O47 C45 1.247 1_565 S
O47 Zn48 2.028 . S
Zn48 O47 2.028 . S
Zn48 O52 2.035 . S
Zn48 O54 2.035 . S
Zn48 O55 2.028 . S
O49 C45 1.258 . S
O49 Zn50 2.035 . S
Zn50 O49 2.035 . S
Zn50 O51 2.028 . S
Zn50 O53 2.028 . S
Zn50 O56 2.035 . S
O51 Zn50 2.028 . S
O51 C57 1.247 . S
O52 Zn48 2.035 . S
O52 C57 1.258 1_565 S
O53 C46 1.247 . S
O53 Zn50 2.028 . S
O54 C46 1.258 1_565 S
O54 Zn48 2.035 . S
O55 Zn48 2.028 . S
O55 C58 1.247 1_565 S
O56 Zn50 2.035 . S
O56 C58 1.258 . S
C57 O51 1.247 . S
C57 O52 1.258 1_545 S
C58 O55 1.247 1_545 S
C58 O56 1.258 . S
C59 C60 1.394 . S
C59 H63 0.950 . S
C59 C68 1.390 . S
C60 C59 1.394 . S
C60 C62 1.381 1_655 S
H61 C68 0.950 . S
C62 C60 1.381 1_455 S
C62 C64 1.390 . S
C62 H66 0.950 . S
H63 C59 0.950 . S
C64 C62 1.390 . S
C64 C65 1.385 1_455 S
C64 H67 0.950 . S
C65 C64 1.385 1_655 S
C65 C68 1.390 . S
H66 C62 0.950 . S
H67 C64 0.950 . S
C68 C59 1.390 . S
C68 H61 0.950 . S
C68 C65 1.390 . S
C69 C70 1.387 . S
C69 H73 0.950 . S
C69 C78 1.390 . S
C70 C69 1.387 . S
C70 C72 1.387 1_565 S
H71 C78 0.950 . S
C72 C70 1.387 1_545 S
C72 C74 1.390 . S
C72 H76 0.950 . S
H73 C69 0.950 . S
C74 C72 1.390 . S
C74 C75 1.387 . S
C74 H77 0.950 . S
C75 C74 1.387 . S
C75 C78 1.387 1_545 S
H76 C72 0.950 . S
H77 C74 0.950 . S
C78 C69 1.390 . S
C78 H71 0.950 . S
C78 C75 1.387 1_565 S
C79 C80 1.387 1_655 S
C79 H83 0.950 . S
C79 C88 1.390 . S
C80 C79 1.387 1_455 S
C80 C82 1.387 . S
H81 C88 0.950 . S
C82 C80 1.387 . S
C82 C84 1.390 . S
C82 H86 0.950 . S
H83 C79 0.950 . S
C84 C82 1.390 . S
C84 C85 1.403 . S
C84 H87 0.950 . S
C85 C84 1.403 . S
C85 C88 1.373 1_455 S
H86 C82 0.950 . S
H87 C84 0.950 . S
C88 C79 1.390 . S
C88 H81 0.950 . S
C88 C85 1.373 1_655 S
C89 C90 1.387 . S
C89 H93 0.950 . S
C89 C98 1.390 . S
C90 C89 1.387 . S
C90 C92 1.387 1_545 S
H91 C98 0.950 . S
C92 C90 1.387 1_565 S
C92 C94 1.390 . S
C92 H96 0.950 . S
H93 C89 0.950 . S
C94 C92 1.390 . S
C94 C95 1.387 1_565 S
C94 H97 0.950 . S
C95 C94 1.387 1_545 S
C95 C98 1.387 . S
H96 C92 0.950 . S
H97 C94 0.950 . S
C98 C89 1.390 . S
C98 H91 0.950 . S
C98 C95 1.387 . S
C99 C100 1.387 1_455 S
C99 H103 0.950 . S
C99 C108 1.390 . S
C100 C99 1.387 1_655 S
C100 C102 1.387 . S
H101 C108 0.950 . S
C102 C100 1.387 . S
C102 C104 1.390 . S
C102 H106 0.950 . S
H103 C99 0.950 . S
C104 C102 1.390 . S
C104 C105 1.390 . S
C104 H107 0.950 . S
C105 C104 1.390 . S
C105 C108 1.386 1_655 S
H106 C102 0.950 . S
H107 C104 0.950 . S
C108 C99 1.390 . S
C108 H101 0.950 . S
C108 C105 1.386 1_455 S
C109 C110 1.387 1_545 S
C109 H113 0.950 . S
C109 C118 1.390 . S
C110 C109 1.387 1_565 S
C110 C112 1.387 . S
H111 C118 0.950 . S
C112 C110 1.387 . S
C112 C114 1.390 . S
C112 H116 0.950 . S
H113 C109 0.950 . S
C114 C112 1.390 . S
C114 C115 1.381 1_565 S
C114 H117 0.950 . S
C115 C114 1.381 1_545 S
C115 C118 1.393 . S
H116 C112 0.950 . S
H117 C114 0.950 . S
C118 C109 1.390 . S
C118 H111 0.950 . S
C118 C115 1.393 . S
C119 C120 1.387 . S
C119 H123 0.950 . S
C119 C128 1.390 . S
C120 C119 1.387 . S
C120 C122 1.387 1_455 S
H121 C128 0.950 . S
C122 C120 1.387 1_655 S
C122 C124 1.390 . S
C122 H126 0.950 . S
H123 C119 0.950 . S
C124 C122 1.390 . S
C124 C125 1.385 1_655 S
C124 H127 0.950 . S
C125 C124 1.385 1_455 S
C125 C128 1.390 . S
H126 C122 0.950 . S
H127 C124 0.950 . S
C128 C119 1.390 . S
C128 H121 0.950 . S
C128 C125 1.390 . S
C129 C130 1.387 . S
C129 H133 0.950 . S
C129 C138 1.390 . S
C130 C129 1.387 . S
C130 C132 1.387 1_545 S
H131 C138 0.950 . S
C132 C130 1.387 1_565 S
C132 C134 1.390 . S
C132 H136 0.950 . S
H133 C129 0.950 . S
C134 C132 1.390 . S
C134 C135 1.387 1_565 S
C134 H137 0.950 . S
C135 C134 1.387 1_545 S
C135 C138 1.387 . S
H136 C132 0.950 . S
H137 C134 0.950 . S
C138 C129 1.390 . S
C138 H131 0.950 . S
C138 C135 1.387 . S
C60 C30 1.406 . S
C65 C32 1.439 . S
C70 C1 1.467 . S
C75 C58 1.494 . S
C80 C0 1.398 1_455 S
C85 C44 1.454 . S
C90 C29 1.501 . S
C95 C46 1.533 . S
C100 C19 1.399 1_655 S
C105 C31 1.456 1_655 S
C110 C20 1.468 . S
C115 C57 1.496 . S
C125 C43 1.440 1_455 S
C120 C10 1.404 . S
C130 C2 1.501 . S
C135 C45 1.535 . S
