# Generated by pormake.
# Topology scu, (8,4)-cn, num edge types: 1
# Building blocks:
#     Node 0, Type 0, BuildingBlock: TAGTUT_clean_sbu_3, # of connection points: 8
#     Node 1, Type 1, BuildingBlock: NAWXER_clean_sbu_0, # of connection points: 4
#     Node 2, Type 1, BuildingBlock: NAWXER_clean_sbu_0, # of connection points: 4
#     Edge 3, Type (0, 1), None
#     Edge 4, Type (0, 1), None
#     Edge 5, Type (0, 1), None
#     Edge 6, Type (0, 1), None
#     Edge 7, Type (0, 1), None
#     Edge 8, Type (0, 1), None
#     Edge 9, Type (0, 1), None
#     Edge 10, Type (0, 1), None
# Relax obj value: 0.038
# Max RMSD: 0.118
# Mean RMSD: 0.078
data_MOF--net-scu--node1-TAGTUT_clean_sbu_3--node2-NAWXER_clean_sbu_0--edge1-none
_symmetry_space_group_name_H-M    P1
_symmetry_Int_Tables_number       1
_symmetry_cell_setting            triclinic
loop_
_symmetry_equiv_pos_as_xyz
'x, y, z'
_cell_length_a     14.788071
_cell_length_b     10.69788
_cell_length_c     9.532061
_cell_angle_alpha  89.994101
_cell_angle_beta   89.943525
_cell_angle_gamma 90.001925
loop_
_atom_site_label
_atom_site_type_symbol
_atom_site_fract_x
_atom_site_fract_y
_atom_site_fract_z
_atom_type_partial_charge
C0 C 0.96523 0.7539 0.18972 0.0
C1 C 0.63101 0.89857 0.17081 0.0
C2 C 0.68205 0.03644 0.75492 0.0
Mg3 Mg 0.14141 0.82685 0.03777 0.0
Mg4 Mg 0.19572 0.11299 0.96903 0.0
O5 O 0.10519 -0.00666 0.95592 0.0
Mg6 Mg -0.02837 0.0099 1.00064 0.0
O7 O 0.83809 -0.00661 0.04542 0.0
Mg8 Mg 0.80179 0.82691 0.96367 0.0
Mg9 Mg 0.74756 0.11306 0.03246 0.0
C10 C 0.04954 0.24811 0.78896 0.0
O11 O 0.96041 0.17501 0.17336 0.0
O12 O 0.26648 0.81027 0.88705 0.0
O13 O 0.81473 0.24635 0.15832 0.0
O14 O 0.2315 0.92911 0.20617 0.0
O15 O 0.29564 0.01355 0.85585 0.0
O16 O 0.24396 0.13553 0.17817 0.0
O17 O 0.93431 0.85291 0.83958 0.0
O18 O 0.05488 0.73198 0.86809 0.0
C19 C -0.02185 0.75413 0.81127 0.0
C20 C 0.3123 0.89847 0.83085 0.0
O21 O -0.01705 0.17504 0.82794 0.0
O22 O 0.6768 0.81037 0.11459 0.0
O23 O 0.12864 0.24633 0.84308 0.0
O24 O 0.71165 0.92927 0.79543 0.0
O25 O 0.64768 0.01364 0.14578 0.0
O26 O 0.69921 0.13569 0.82338 0.0
O27 O 0.00878 0.85298 0.16161 0.0
O28 O 0.88846 0.73169 0.13307 0.0
C29 C 0.26109 0.03628 0.24667 0.0
C30 C 0.89384 0.24811 0.21238 0.0
C31 C 0.94884 0.66894 0.69925 0.0
C32 C 0.906 0.33912 0.32589 0.0
O33 O 0.01272 0.62221 0.62848 0.0
Zn34 Zn 0.04915 0.50422 0.47452 0.0
O35 O 0.86716 0.63504 0.67533 0.0
Zn36 Zn 0.89433 0.50422 0.5267 0.0
O37 O 0.958 0.37689 0.65031 0.0
O38 O 0.10478 0.38399 0.60662 0.0
O39 O 0.83866 0.38399 0.3947 0.0
O40 O -0.01456 0.37685 0.35098 0.0
O41 O 0.07631 0.63498 0.32573 0.0
O42 O 0.93077 0.62211 0.37266 0.0
C43 C 0.03742 0.33914 0.67543 0.0
C44 C -0.00538 0.66882 0.30181 0.0
C45 C 0.61025 0.03767 0.64815 0.0
C46 C 0.33291 0.03753 0.35342 0.0
O47 O 0.57715 0.93168 0.61386 0.0
Zn48 Zn 0.47162 0.84665 0.5008 0.0
O49 O 0.57167 0.13838 0.60757 0.0
Zn50 Zn 0.47158 0.06217 0.50077 0.0
O51 O 0.40274 -0.02102 0.65789 0.0
O52 O 0.39884 0.77298 0.6617 0.0
O53 O 0.37144 0.13826 0.394 0.0
O54 O 0.36605 0.93157 0.38772 0.0
O55 O 0.54446 0.77305 0.33994 0.0
O56 O 0.54051 -0.02095 0.34371 0.0
C57 C 0.37692 0.87831 0.71571 0.0
C58 C 0.56639 0.87839 0.28596 0.0
loop_
_geom_bond_atom_site_label_1
_geom_bond_atom_site_label_2
_geom_bond_distance
_geom_bond_site_symmetry_2
_ccdc_geom_bond_type
C0 O27 1.312 1_655 S
C0 O28 1.208 . S
C1 O22 1.331 . S
C1 O25 1.244 1_565 S
C2 O24 1.264 1_545 S
C2 O26 1.273 . S
Mg3 O5 1.936 1_565 S
Mg3 O12 2.082 . S
Mg3 O14 2.023 1_556 S
Mg3 O18 2.031 . S
Mg3 O27 2.290 1_556 S
Mg4 O5 1.963 . S
Mg4 O15 1.942 . S
Mg4 O16 1.955 1_556 S
Mg4 O23 1.986 . S
O5 Mg3 1.936 1_545 S
O5 Mg4 1.963 . S
O5 Mg6 1.915 1_556 S
Mg6 O5 1.915 1_554 S
Mg6 O7 1.915 1_455 S
Mg6 O11 2.013 . S
Mg6 O17 2.114 1_444 S
Mg6 O21 2.013 1_454 S
Mg6 O27 2.114 1_545 S
O7 Mg6 1.915 1_655 S
O7 Mg8 1.936 1_545 S
O7 Mg9 1.963 . S
Mg8 O7 1.936 1_565 S
Mg8 O17 2.289 1_554 S
Mg8 O22 2.083 . S
Mg8 O24 2.021 1_554 S
Mg8 O28 2.033 . S
Mg9 O7 1.963 . S
Mg9 O13 1.986 . S
Mg9 O25 1.942 . S
Mg9 O26 1.955 1_554 S
C10 O21 1.191 1_455 S
C10 O23 1.307 . S
O11 Mg6 2.013 . S
O11 C30 1.191 1_455 S
O12 Mg3 2.082 . S
O12 C20 1.331 . S
O13 Mg9 1.986 . S
O13 C30 1.307 . S
O14 Mg3 2.023 1_554 S
O14 C29 1.264 1_565 S
O15 Mg4 1.942 . S
O15 C20 1.244 1_545 S
O16 Mg4 1.955 1_554 S
O16 C29 1.273 . S
O17 Mg6 2.114 1_666 S
O17 Mg8 2.289 1_556 S
O17 C19 1.312 1_655 S
O18 Mg3 2.031 . S
O18 C19 1.208 . S
C19 O17 1.312 1_455 S
C19 O18 1.208 . S
C20 O12 1.331 . S
C20 O15 1.244 1_565 S
O21 Mg6 2.013 1_656 S
O21 C10 1.191 1_655 S
O22 C1 1.331 . S
O22 Mg8 2.083 . S
O23 Mg4 1.986 . S
O23 C10 1.307 . S
O24 C2 1.264 1_565 S
O24 Mg8 2.021 1_556 S
O25 C1 1.244 1_545 S
O25 Mg9 1.942 . S
O26 C2 1.273 . S
O26 Mg9 1.955 1_556 S
O27 C0 1.312 1_455 S
O27 Mg3 2.290 1_554 S
O27 Mg6 2.114 1_565 S
O28 C0 1.208 . S
O28 Mg8 2.033 . S
C29 O14 1.264 1_545 S
C29 O16 1.273 . S
C30 O11 1.191 1_655 S
C30 O13 1.307 . S
C31 O33 1.251 . S
C31 O35 1.254 1_455 S
C32 O39 1.249 . S
C32 O40 1.256 1_655 S
O33 C31 1.251 . S
O33 Zn34 2.028 . S
Zn34 O33 2.028 . S
Zn34 O38 2.035 . S
Zn34 O40 2.035 . S
Zn34 O41 2.028 . S
O35 C31 1.254 1_655 S
O35 Zn36 2.035 . S
Zn36 O35 2.035 . S
Zn36 O37 2.028 . S
Zn36 O39 2.028 . S
Zn36 O42 2.035 . S
O37 Zn36 2.028 . S
O37 C43 1.249 . S
O38 Zn34 2.035 . S
O38 C43 1.256 1_455 S
O39 C32 1.249 . S
O39 Zn36 2.028 . S
O40 C32 1.256 1_455 S
O40 Zn34 2.035 . S
O41 Zn34 2.028 . S
O41 C44 1.251 . S
O42 Zn36 2.035 . S
O42 C44 1.254 1_655 S
C43 O37 1.249 . S
C43 O38 1.256 1_655 S
C44 O41 1.251 . S
C44 O42 1.254 1_455 S
C45 O47 1.247 1_545 S
C45 O49 1.258 . S
C46 O53 1.247 . S
C46 O54 1.258 1_545 S
O47 C45 1.247 1_565 S
O47 Zn48 2.028 . S
Zn48 O47 2.028 . S
Zn48 O52 2.035 . S
Zn48 O54 2.035 . S
Zn48 O55 2.028 . S
O49 C45 1.258 . S
O49 Zn50 2.035 . S
Zn50 O49 2.035 . S
Zn50 O51 2.028 . S
Zn50 O53 2.028 . S
Zn50 O56 2.035 . S
O51 Zn50 2.028 . S
O51 C57 1.247 . S
O52 Zn48 2.035 . S
O52 C57 1.258 1_565 S
O53 C46 1.247 . S
O53 Zn50 2.028 . S
O54 C46 1.258 1_565 S
O54 Zn48 2.035 . S
O55 Zn48 2.028 . S
O55 C58 1.247 1_565 S
O56 Zn50 2.035 . S
O56 C58 1.258 . S
C57 O51 1.247 . S
C57 O52 1.258 1_545 S
C58 O55 1.247 1_545 S
C58 O56 1.258 . S
C30 C32 1.467 . S
C1 C58 1.412 1_565 S
C0 C44 1.474 1_655 S
C29 C46 1.459 . S
C19 C31 1.475 . S
C20 C57 1.414 1_565 S
C43 C10 1.469 1_655 S
C2 C45 1.462 . S
