# Generated by pormake.
# Topology ssa, (4,4)-cn, num edge types: 1
# Building blocks:
#     Node 0, Type 0, BuildingBlock: NAWXER_clean_sbu_0, # of connection points: 4
#     Node 1, Type 0, BuildingBlock: NAWXER_clean_sbu_0, # of connection points: 4
#     Node 2, Type 0, BuildingBlock: NAWXER_clean_sbu_0, # of connection points: 4
#     Node 3, Type 0, BuildingBlock: NAWXER_clean_sbu_0, # of connection points: 4
#     Node 4, Type 0, BuildingBlock: NAWXER_clean_sbu_0, # of connection points: 4
#     Node 5, Type 0, BuildingBlock: NAWXER_clean_sbu_0, # of connection points: 4
#     Node 6, Type 1, BuildingBlock: MUDLON_clean_sbu_0, # of connection points: 4
#     Node 7, Type 1, BuildingBlock: MUDLON_clean_sbu_0, # of connection points: 4
#     Node 8, Type 1, BuildingBlock: MUDLON_clean_sbu_0, # of connection points: 4
#     Node 9, Type 1, BuildingBlock: MUDLON_clean_sbu_0, # of connection points: 4
#     Node 10, Type 1, BuildingBlock: MUDLON_clean_sbu_0, # of connection points: 4
#     Node 11, Type 1, BuildingBlock: MUDLON_clean_sbu_0, # of connection points: 4
#     Edge 12, Type (0, 1), None
#     Edge 13, Type (0, 1), None
#     Edge 14, Type (0, 1), None
#     Edge 15, Type (0, 1), None
#     Edge 16, Type (0, 1), None
#     Edge 17, Type (0, 1), None
#     Edge 18, Type (0, 1), None
#     Edge 19, Type (0, 1), None
#     Edge 20, Type (0, 1), None
#     Edge 21, Type (0, 1), None
#     Edge 22, Type (0, 1), None
#     Edge 23, Type (0, 1), None
#     Edge 24, Type (0, 1), None
#     Edge 25, Type (0, 1), None
#     Edge 26, Type (0, 1), None
#     Edge 27, Type (0, 1), None
#     Edge 28, Type (0, 1), None
#     Edge 29, Type (0, 1), None
#     Edge 30, Type (0, 1), None
#     Edge 31, Type (0, 1), None
#     Edge 32, Type (0, 1), None
#     Edge 33, Type (0, 1), None
#     Edge 34, Type (0, 1), None
#     Edge 35, Type (0, 1), None
# Relax obj value: 0.035
# Max RMSD: 0.048
# Mean RMSD: 0.037
data_MOF--net-ssa--node1-NAWXER_clean_sbu_0--node2-MUDLON_clean_sbu_0--edge1-none
_symmetry_space_group_name_H-M    P1
_symmetry_Int_Tables_number       1
_symmetry_cell_setting            triclinic
loop_
_symmetry_equiv_pos_as_xyz
'x, y, z'
_cell_length_a     18.80571
_cell_length_b     19.160289
_cell_length_c     15.897032
_cell_angle_alpha  84.355204
_cell_angle_beta   92.870039
_cell_angle_gamma 120.63259
loop_
_atom_site_label
_atom_site_type_symbol
_atom_site_fract_x
_atom_site_fract_y
_atom_site_fract_z
_atom_type_partial_charge
C0 C 0.10841 0.6176 0.20451 0.0
C1 C 1.02292 0.45446 0.9603 0.0
O2 O 0.03605 0.55433 0.21509 0.0
Zn3 Zn 0.95281 0.4541 0.14109 0.0
O4 O 0.14931 0.62806 0.13865 0.0
Zn5 Zn 0.06918 0.53277 0.08366 0.0
O6 O 0.9742 0.5608 1.0495 0.0
O7 O 0.8593 0.46855 0.11663 0.0
O8 O 0.09394 0.51567 0.97263 0.0
O9 O 0.96736 0.4265 1.0175 0.0
O10 O 0.93347 0.35541 0.20481 0.0
O11 O 0.06081 0.42641 0.15521 0.0
C12 C 0.89741 0.531 1.06488 0.0
C13 C 1.00348 0.36233 0.19548 0.0
C14 C 0.47624 0.10616 0.67703 0.0
C15 C 0.55674 0.94977 0.52748 0.0
O16 O 0.45938 0.03316 0.6927 0.0
Zn17 Zn 0.51591 0.02848 0.60037 0.0
O18 O 0.51525 0.1475 0.6092 0.0
Zn19 Zn 0.56688 0.12366 0.50365 0.0
O20 O 0.49841 0.12092 0.40546 0.0
O21 O 0.43371 0.01303 0.49593 0.0
O22 O 0.57621 0.01783 0.48562 0.0
O23 O 0.52481 0.93319 0.60041 0.0
O24 O 0.64197 0.12221 0.62207 0.0
O25 O 0.68331 0.21038 0.50956 0.0
C26 C 0.43492 0.05191 0.42522 0.0
C27 C 0.6983 0.1878 0.58295 0.0
C28 C 0.51886 0.43086 1.02746 0.0
C29 C 0.59942 0.66785 0.1769 0.0
O30 O 0.4994 0.47945 0.98558 0.0
Zn31 Zn 0.50875 0.59462 1.00355 0.0
O32 O 0.55081 0.44625 0.10038 0.0
Zn33 Zn 0.55973 0.55046 0.10028 0.0
O34 O 0.43367 0.51811 0.122 0.0
O35 O 0.39233 0.56491 1.00947 0.0
O36 O 0.61628 0.61171 0.19257 0.0
O37 O 0.56039 0.67015 0.10908 0.0
O38 O 0.57722 0.66033 0.90533 0.0
O39 O 0.64191 0.61716 0.99581 0.0
C40 C 0.37734 0.52736 0.08288 0.0
C41 C 0.6407 0.65481 0.92509 0.0
C42 C 0.17813 0.67132 0.56493 0.0
C43 C 0.07211 0.39656 0.69551 0.0
O44 O 0.21624 0.64699 0.61668 0.0
Zn45 Zn 0.12275 0.53901 0.64111 0.0
O46 O 0.10135 0.6243 0.54953 0.0
Zn47 Zn 1.00638 0.50126 0.58368 0.0
O48 O 0.92623 0.51638 0.63865 0.0
O49 O 0.03948 0.55596 0.7151 0.0
O50 O 1.01478 0.40329 0.65525 0.0
O51 O 0.14211 0.45968 0.70484 0.0
O52 O 0.10824 0.49688 0.51751 0.0
O53 O 0.98166 0.45941 0.47264 0.0
C54 C 0.96711 0.54684 0.70451 0.0
C55 C 0.05269 0.46928 0.46031 0.0
C56 C 0.71979 1.00006 0.24185 0.0
C57 C 0.58578 0.13214 1.0646 0.0
O58 O 0.7295 0.07056 0.24437 0.0
Zn59 Zn 0.65928 0.07079 0.14945 0.0
O60 O 0.6782 0.95793 0.18047 0.0
Zn61 Zn 0.6077 0.97322 1.07268 0.0
O62 O 0.66694 0.98083 0.97209 0.0
O63 O 0.73047 0.09279 1.03844 0.0
O64 O 0.57055 0.06475 1.03753 0.0
O65 O 0.63301 0.15766 0.12842 0.0
O66 O 0.54242 0.9682 0.1892 0.0
O67 O 0.502 0.87683 0.09532 0.0
C68 C 0.72585 0.05364 0.97558 0.0
C69 C 0.49007 0.89851 0.16379 0.0
C70 C 0.58547 0.44621 0.66368 0.0
C71 C 0.34967 0.36551 0.47552 0.0
O72 O 0.53313 0.46355 0.68911 0.0
Zn73 Zn 0.41626 0.44925 0.64938 0.0
O74 O 0.57353 0.4126 0.59522 0.0
Zn75 Zn 0.46782 0.40326 0.57261 0.0
O76 O 0.50498 0.53195 0.53745 0.0
O77 O 0.44254 0.5624 0.62835 0.0
O78 O 0.40857 0.35162 0.47203 0.0
O79 O 0.34506 0.40005 0.53838 0.0
O80 O 0.34605 0.37878 0.74433 0.0
O81 O 0.39735 0.31747 0.68043 0.0
C82 C 0.48976 0.58412 0.56453 0.0
C83 C 0.35577 0.318 0.74182 0.0
Mg84 Mg 0.18566 0.40788 0.29371 0.0
C85 C 1.01362 0.29152 0.21859 0.0
O86 O 0.95165 0.21854 0.20606 0.0
C87 C 0.29477 0.35465 0.40227 0.0
O88 O 0.31095 0.3374 0.33025 0.0
C89 C 0.0685 0.43664 0.38877 0.0
O90 O 1.02052 0.35865 0.38042 0.0
O91 O 0.13965 0.47522 0.35378 0.0
O92 O 0.08046 0.29856 0.24991 0.0
O93 O 0.28978 0.47007 0.20328 0.0
C94 C 0.29678 0.49495 0.12503 0.0
O95 O 0.2328 0.48964 0.08247 0.0
O96 O 0.24283 0.3784 0.40414 0.0
Mg97 Mg 0.88996 0.26001 0.79378 0.0
C98 C 0.77886 0.23597 0.6251 0.0
O99 O 0.84283 0.29468 0.58255 0.0
C100 C 1.00714 0.40602 0.88877 0.0
O101 O 0.05514 0.37604 0.88042 0.0
C102 C 0.78077 0.09768 0.90233 0.0
O103 O 0.76458 0.06426 0.83031 0.0
O104 O 0.83274 0.17337 0.90422 0.0
O105 O 0.78586 0.21806 0.70334 0.0
O106 O 0.99513 0.25583 0.75002 0.0
C107 C 0.06196 0.31562 0.71867 0.0
O108 O 0.12393 0.3046 0.70616 0.0
O109 O 0.93598 0.37339 0.85381 0.0
Mg110 Mg 0.60848 0.80773 0.37167 0.0
C111 C 0.76833 0.97435 0.30007 0.0
O112 O 0.84801 0.02557 0.30607 0.0
C113 C 0.51803 0.6652 0.51671 0.0
O114 O 0.47464 0.70057 0.52342 0.0
C115 C 0.57463 0.89279 0.49242 0.0
O116 O 0.61447 0.86311 0.53871 0.0
O117 O 0.55672 0.87553 0.41606 0.0
O118 O 0.73683 0.90698 0.34729 0.0
O119 O 0.57426 0.7554 0.25148 0.0
C120 C 0.61927 0.725 0.24078 0.0
O121 O 0.67522 0.73309 0.29806 0.0
O122 O 0.57831 0.69776 0.46394 0.0
Mg123 Mg 0.78247 0.57121 0.84363 0.0
C124 C 0.66091 0.47053 0.71243 0.0
O125 O 0.72617 0.47725 0.67764 0.0
C126 C 0.85288 0.56087 1.0096 0.0
O127 O 0.88816 0.63958 0.98946 0.0
C128 C 0.704 0.67394 0.86124 0.0
O129 O 0.67883 0.66035 0.78285 0.0
O130 O 0.76651 0.66799 0.88587 0.0
O131 O 0.66634 0.4972 0.78392 0.0
O132 O 0.8738 0.58481 0.75179 0.0
C133 C 0.92906 0.56603 0.77087 0.0
O134 O 0.94383 0.55273 0.85055 0.0
O135 O 0.79949 0.51259 0.95959 0.0
Mg136 Mg 0.29307 0.82656 0.34371 0.0
C137 C 0.14645 0.67483 0.27089 0.0
O138 O 0.13167 0.64672 0.35056 0.0
C139 C 0.37159 0.00776 0.36139 0.0
O140 O 0.39675 0.01936 0.28298 0.0
C141 C 0.22266 0.74574 0.50967 0.0
O142 O 0.18739 0.78918 0.48959 0.0
O143 O 0.27604 0.75087 0.45963 0.0
O144 O 0.20174 0.74888 0.25184 0.0
O145 O 0.4092 0.86868 0.28401 0.0
C146 C 0.41463 0.84738 0.21255 0.0
O147 O 0.34937 0.7888 0.17779 0.0
O148 O 0.30908 0.9393 0.38602 0.0
Mg149 Mg 0.46708 0.23702 0.87172 0.0
C150 C 0.45638 0.14345 0.74091 0.0
O151 O 0.40048 0.09558 0.79823 0.0
C152 C 0.50096 0.35598 0.99243 0.0
O153 O 0.46111 0.28647 1.03875 0.0
C154 C 0.55751 0.18496 1.01679 0.0
O155 O 0.60091 0.26373 1.02349 0.0
O156 O 0.49723 0.15722 0.96403 0.0
O157 O 0.50134 0.21889 0.75156 0.0
O158 O 0.33874 0.20791 0.8473 0.0
C159 C 0.30724 0.24376 0.80006 0.0
O160 O 0.22755 0.21525 0.80604 0.0
O161 O 0.51886 0.35661 0.91607 0.0
loop_
_geom_bond_atom_site_label_1
_geom_bond_atom_site_label_2
_geom_bond_distance
_geom_bond_site_symmetry_2
_ccdc_geom_bond_type
C0 O2 1.247 . S
C0 O4 1.258 . S
C1 O8 1.247 1_655 S
C1 O9 1.258 . S
O2 C0 1.247 . S
O2 Zn3 2.028 1_455 S
Zn3 O2 2.028 1_655 S
Zn3 O7 2.035 1_554 S
Zn3 O9 2.035 1_554 S
Zn3 O10 2.028 1_655 S
O4 C0 1.258 . S
O4 Zn5 2.035 1_554 S
Zn5 O4 2.035 1_556 S
Zn5 O6 2.028 . S
Zn5 O8 2.028 . S
Zn5 O11 2.035 1_556 S
O6 Zn5 2.028 . S
O6 C12 1.247 1_455 S
O7 Zn3 2.035 1_556 S
O7 C12 1.258 . S
O8 C1 1.247 1_455 S
O8 Zn5 2.028 . S
O9 C1 1.258 . S
O9 Zn3 2.035 1_556 S
O10 Zn3 2.028 1_455 S
O10 C13 1.247 . S
O11 Zn5 2.035 1_554 S
O11 C13 1.258 . S
C12 O6 1.247 1_655 S
C12 O7 1.258 . S
C13 O10 1.247 . S
C13 O11 1.258 . S
C14 O16 1.247 . S
C14 O18 1.258 . S
C15 O22 1.247 1_565 S
C15 O23 1.258 . S
O16 C14 1.247 . S
O16 Zn17 2.028 1_545 S
Zn17 O16 2.028 1_565 S
Zn17 O21 2.035 . S
Zn17 O23 2.035 . S
Zn17 O24 2.028 1_565 S
O18 C14 1.258 . S
O18 Zn19 2.035 . S
Zn19 O18 2.035 . S
Zn19 O20 2.028 . S
Zn19 O22 2.028 . S
Zn19 O25 2.035 . S
O20 Zn19 2.028 . S
O20 C26 1.247 1_545 S
O21 Zn17 2.035 . S
O21 C26 1.258 . S
O22 C15 1.247 1_545 S
O22 Zn19 2.028 . S
O23 C15 1.258 . S
O23 Zn17 2.035 . S
O24 Zn17 2.028 1_545 S
O24 C27 1.247 . S
O25 Zn19 2.035 . S
O25 C27 1.258 . S
C26 O20 1.247 1_565 S
C26 O21 1.258 . S
C27 O24 1.247 . S
C27 O25 1.258 . S
C28 O30 1.247 . S
C28 O32 1.258 . S
C29 O36 1.247 . S
C29 O37 1.258 . S
O30 C28 1.247 . S
O30 Zn31 2.028 . S
Zn31 O30 2.028 . S
Zn31 O35 2.035 1_556 S
Zn31 O37 2.035 1_556 S
Zn31 O38 2.028 . S
O32 C28 1.258 . S
O32 Zn33 2.035 1_556 S
Zn33 O32 2.035 1_554 S
Zn33 O34 2.028 . S
Zn33 O36 2.028 . S
Zn33 O39 2.035 1_554 S
O34 Zn33 2.028 . S
O34 C40 1.247 . S
O35 Zn31 2.035 1_554 S
O35 C40 1.258 . S
O36 C29 1.247 . S
O36 Zn33 2.028 . S
O37 C29 1.258 . S
O37 Zn31 2.035 1_554 S
O38 Zn31 2.028 . S
O38 C41 1.247 . S
O39 Zn33 2.035 1_556 S
O39 C41 1.258 . S
C40 O34 1.247 . S
C40 O35 1.258 . S
C41 O38 1.247 . S
C41 O39 1.258 . S
C42 O44 1.247 . S
C42 O46 1.258 1_455 S
C43 O50 1.247 . S
C43 O51 1.258 1_655 S
O44 C42 1.247 . S
O44 Zn45 2.028 . S
Zn45 O44 2.028 . S
Zn45 O49 2.035 . S
Zn45 O51 2.035 . S
Zn45 O52 2.028 . S
O46 C42 1.258 1_655 S
O46 Zn47 2.035 . S
Zn47 O46 2.035 . S
Zn47 O48 2.028 . S
Zn47 O50 2.028 . S
Zn47 O53 2.035 . S
O48 Zn47 2.028 . S
O48 C54 1.247 . S
O49 Zn45 2.035 . S
O49 C54 1.258 1_455 S
O50 C43 1.247 . S
O50 Zn47 2.028 . S
O51 C43 1.258 1_455 S
O51 Zn45 2.035 . S
O52 Zn45 2.028 . S
O52 C55 1.247 . S
O53 Zn47 2.035 . S
O53 C55 1.258 1_655 S
C54 O48 1.247 . S
C54 O49 1.258 1_655 S
C55 O52 1.247 . S
C55 O53 1.258 1_455 S
C56 O58 1.247 1_565 S
C56 O60 1.258 . S
C57 O64 1.247 1_545 S
C57 O65 1.258 . S
O58 C56 1.247 1_545 S
O58 Zn59 2.028 . S
Zn59 O58 2.028 . S
Zn59 O63 2.035 1_554 S
Zn59 O65 2.035 1_554 S
Zn59 O66 2.028 . S
O60 C56 1.258 . S
O60 Zn61 2.035 1_554 S
Zn61 O60 2.035 1_556 S
Zn61 O62 2.028 . S
Zn61 O64 2.028 . S
Zn61 O67 2.035 1_556 S
O62 Zn61 2.028 . S
O62 C68 1.247 1_565 S
O63 Zn59 2.035 1_556 S
O63 C68 1.258 . S
O64 C57 1.247 1_565 S
O64 Zn61 2.028 . S
O65 C57 1.258 . S
O65 Zn59 2.035 1_556 S
O66 Zn59 2.028 . S
O66 C69 1.247 1_545 S
O67 Zn61 2.035 1_554 S
O67 C69 1.258 . S
C68 O62 1.247 1_545 S
C68 O63 1.258 . S
C69 O66 1.247 1_565 S
C69 O67 1.258 . S
C70 O72 1.247 . S
C70 O74 1.258 . S
C71 O78 1.247 . S
C71 O79 1.258 . S
O72 C70 1.247 . S
O72 Zn73 2.028 . S
Zn73 O72 2.028 . S
Zn73 O77 2.035 . S
Zn73 O79 2.035 . S
Zn73 O80 2.028 . S
O74 C70 1.258 . S
O74 Zn75 2.035 . S
Zn75 O74 2.035 . S
Zn75 O76 2.028 . S
Zn75 O78 2.028 . S
Zn75 O81 2.035 . S
O76 Zn75 2.028 . S
O76 C82 1.247 . S
O77 Zn73 2.035 . S
O77 C82 1.258 . S
O78 C71 1.247 . S
O78 Zn75 2.028 . S
O79 C71 1.258 . S
O79 Zn73 2.035 . S
O80 Zn73 2.028 . S
O80 C83 1.247 . S
O81 Zn75 2.035 . S
O81 C83 1.258 . S
C82 O76 1.247 . S
C82 O77 1.258 . S
C83 O80 1.247 . S
C83 O81 1.258 . S
Mg84 O91 2.141 . S
Mg84 O92 2.048 . S
Mg84 O93 2.048 . S
Mg84 O96 2.141 . S
C85 O86 1.313 . S
C85 O92 1.195 . S
O86 C85 1.313 . S
C87 O88 1.245 . S
C87 O96 1.289 . S
O88 C87 1.245 . S
C89 O90 1.245 . S
C89 O91 1.289 . S
O90 C89 1.245 . S
O91 Mg84 2.141 . S
O91 C89 1.289 . S
O92 Mg84 2.048 . S
O92 C85 1.195 . S
O93 Mg84 2.048 . S
O93 C94 1.195 . S
C94 O93 1.195 . S
C94 O95 1.313 . S
O95 C94 1.313 . S
O96 Mg84 2.141 . S
O96 C87 1.289 . S
Mg97 O104 2.141 . S
Mg97 O105 2.048 . S
Mg97 O106 2.048 . S
Mg97 O109 2.141 . S
C98 O99 1.313 . S
C98 O105 1.195 . S
O99 C98 1.313 . S
C100 O101 1.245 . S
C100 O109 1.289 . S
O101 C100 1.245 . S
C102 O103 1.245 . S
C102 O104 1.289 . S
O103 C102 1.245 . S
O104 Mg97 2.141 . S
O104 C102 1.289 . S
O105 Mg97 2.048 . S
O105 C98 1.195 . S
O106 Mg97 2.048 . S
O106 C107 1.195 . S
C107 O106 1.195 . S
C107 O108 1.313 . S
O108 C107 1.313 . S
O109 Mg97 2.141 . S
O109 C100 1.289 . S
Mg110 O117 2.141 . S
Mg110 O118 2.048 . S
Mg110 O119 2.048 . S
Mg110 O122 2.141 . S
C111 O112 1.313 . S
C111 O118 1.195 . S
O112 C111 1.313 . S
C113 O114 1.245 . S
C113 O122 1.289 . S
O114 C113 1.245 . S
C115 O116 1.245 . S
C115 O117 1.289 . S
O116 C115 1.245 . S
O117 Mg110 2.141 . S
O117 C115 1.289 . S
O118 Mg110 2.048 . S
O118 C111 1.195 . S
O119 Mg110 2.048 . S
O119 C120 1.195 . S
C120 O119 1.195 . S
C120 O121 1.313 . S
O121 C120 1.313 . S
O122 Mg110 2.141 . S
O122 C113 1.289 . S
Mg123 O130 2.141 . S
Mg123 O131 2.048 . S
Mg123 O132 2.048 . S
Mg123 O135 2.141 . S
C124 O125 1.313 . S
C124 O131 1.195 . S
O125 C124 1.313 . S
C126 O127 1.245 . S
C126 O135 1.289 . S
O127 C126 1.245 . S
C128 O129 1.245 . S
C128 O130 1.289 . S
O129 C128 1.245 . S
O130 Mg123 2.141 . S
O130 C128 1.289 . S
O131 Mg123 2.048 . S
O131 C124 1.195 . S
O132 Mg123 2.048 . S
O132 C133 1.195 . S
C133 O132 1.195 . S
C133 O134 1.313 . S
O134 C133 1.313 . S
O135 Mg123 2.141 . S
O135 C126 1.289 . S
Mg136 O143 2.141 . S
Mg136 O144 2.048 . S
Mg136 O145 2.048 . S
Mg136 O148 2.141 . S
C137 O138 1.313 . S
C137 O144 1.195 . S
O138 C137 1.313 . S
C139 O140 1.245 . S
C139 O148 1.289 . S
O140 C139 1.245 . S
C141 O142 1.245 . S
C141 O143 1.289 . S
O142 C141 1.245 . S
O143 Mg136 2.141 . S
O143 C141 1.289 . S
O144 Mg136 2.048 . S
O144 C137 1.195 . S
O145 Mg136 2.048 . S
O145 C146 1.195 . S
C146 O145 1.195 . S
C146 O147 1.313 . S
O147 C146 1.313 . S
O148 Mg136 2.141 . S
O148 C139 1.289 . S
Mg149 O156 2.141 . S
Mg149 O157 2.048 . S
Mg149 O158 2.048 . S
Mg149 O161 2.141 . S
C150 O151 1.313 . S
C150 O157 1.195 . S
O151 C150 1.313 . S
C152 O153 1.245 . S
C152 O161 1.289 . S
O153 C152 1.245 . S
C154 O155 1.245 . S
C154 O156 1.289 . S
O155 C154 1.245 . S
O156 Mg149 2.141 . S
O156 C154 1.289 . S
O157 Mg149 2.048 . S
O157 C150 1.195 . S
O158 Mg149 2.048 . S
O158 C159 1.195 . S
C159 O158 1.195 . S
C159 O160 1.313 . S
O160 C159 1.313 . S
O161 Mg149 2.141 . S
O161 C152 1.289 . S
C13 C85 1.965 . S
C27 C98 1.965 . S
C120 C29 1.785 . S
C133 C54 1.786 . S
C146 C69 1.785 . S
C159 C83 1.785 . S
C15 C115 1.723 . S
C41 C128 1.723 . S
C141 C42 1.724 . S
C154 C57 1.723 . S
C71 C87 1.958 . S
C100 C1 1.958 . S
C126 C12 1.723 . S
C26 C139 1.723 . S
C152 C28 1.723 . S
C55 C89 1.960 . S
C68 C102 1.958 . S
C82 C113 1.723 . S
C14 C150 1.785 . S
C94 C40 1.965 . S
C43 C107 1.967 . S
C56 C111 1.784 . S
C70 C124 1.785 . S
C0 C137 1.785 . S
