# Generated by pormake.
# Topology pto, (3,4)-cn, num edge types: 1
# Building blocks:
#     Node 0, Type 0, BuildingBlock: OLANEW_clean_sbu_2, # of connection points: 3
#     Node 1, Type 0, BuildingBlock: OLANEW_clean_sbu_2, # of connection points: 3
#     Node 2, Type 0, BuildingBlock: OLANEW_clean_sbu_2, # of connection points: 3
#     Node 3, Type 0, BuildingBlock: OLANEW_clean_sbu_2, # of connection points: 3
#     Node 4, Type 0, BuildingBlock: OLANEW_clean_sbu_2, # of connection points: 3
#     Node 5, Type 0, BuildingBlock: OLANEW_clean_sbu_2, # of connection points: 3
#     Node 6, Type 0, BuildingBlock: OLANEW_clean_sbu_2, # of connection points: 3
#     Node 7, Type 0, BuildingBlock: OLANEW_clean_sbu_2, # of connection points: 3
#     Node 8, Type 1, BuildingBlock: NAWXER_clean_sbu_0, # of connection points: 4
#     Node 9, Type 1, BuildingBlock: NAWXER_clean_sbu_0, # of connection points: 4
#     Node 10, Type 1, BuildingBlock: NAWXER_clean_sbu_0, # of connection points: 4
#     Node 11, Type 1, BuildingBlock: NAWXER_clean_sbu_0, # of connection points: 4
#     Node 12, Type 1, BuildingBlock: NAWXER_clean_sbu_0, # of connection points: 4
#     Node 13, Type 1, BuildingBlock: NAWXER_clean_sbu_0, # of connection points: 4
#     Edge 14, Type (0, 1), None
#     Edge 15, Type (0, 1), None
#     Edge 16, Type (0, 1), None
#     Edge 17, Type (0, 1), None
#     Edge 18, Type (0, 1), None
#     Edge 19, Type (0, 1), None
#     Edge 20, Type (0, 1), None
#     Edge 21, Type (0, 1), None
#     Edge 22, Type (0, 1), None
#     Edge 23, Type (0, 1), None
#     Edge 24, Type (0, 1), None
#     Edge 25, Type (0, 1), None
#     Edge 26, Type (0, 1), None
#     Edge 27, Type (0, 1), None
#     Edge 28, Type (0, 1), None
#     Edge 29, Type (0, 1), None
#     Edge 30, Type (0, 1), None
#     Edge 31, Type (0, 1), None
#     Edge 32, Type (0, 1), None
#     Edge 33, Type (0, 1), None
#     Edge 34, Type (0, 1), None
#     Edge 35, Type (0, 1), None
#     Edge 36, Type (0, 1), None
#     Edge 37, Type (0, 1), None
# Relax obj value: 0.019
# Max RMSD: 0.121
# Mean RMSD: 0.050
data_MOF--net-pto--node1-OLANEW_clean_sbu_2--node2-NAWXER_clean_sbu_0--edge1-none
_symmetry_space_group_name_H-M    P1
_symmetry_Int_Tables_number       1
_symmetry_cell_setting            triclinic
loop_
_symmetry_equiv_pos_as_xyz
'x, y, z'
_cell_length_a     21.117139
_cell_length_b     19.527049
_cell_length_c     20.220339
_cell_angle_alpha  92.519644
_cell_angle_beta   93.525569
_cell_angle_gamma 100.24001
loop_
_atom_site_label
_atom_site_type_symbol
_atom_site_fract_x
_atom_site_fract_y
_atom_site_fract_z
_atom_type_partial_charge
O0 O 0.30071 0.31749 0.1357 0.0
Cd1 Cd 0.22092 0.34022 0.21401 0.0
O2 O 0.36635 0.41485 0.1714 0.0
Cd3 Cd 0.30633 0.44736 0.24737 0.0
O4 O 0.2318 0.50267 0.28175 0.0
C5 C 0.19987 0.51888 0.23149 0.0
O6 O 0.21499 0.50016 0.17212 0.0
C7 C 0.35341 0.36019 0.13272 0.0
C8 C 0.23891 0.27579 0.33167 0.0
O9 O 0.19277 0.24885 0.28916 0.0
O10 O 0.27503 0.3329 0.3191 0.0
O11 O 0.39858 0.90678 0.75468 0.0
Cd12 Cd 0.31512 0.89756 0.66268 0.0
O13 O 0.33476 0.81797 0.79054 0.0
Cd14 Cd 0.29229 0.74063 0.85704 0.0
O15 O 0.19639 0.67679 0.8409 0.0
C16 C 0.15188 0.66308 0.88041 0.0
O17 O 0.16162 0.68534 0.94305 0.0
C18 C 0.38803 0.86036 0.79673 0.0
C19 C 0.3049 0.01861 0.59752 0.0
O20 O 0.26205 0.99455 0.6368 0.0
O21 O 0.3524 0.9869 0.59063 0.0
O22 O 0.78228 0.85827 0.33125 0.0
Cd23 Cd 0.78375 0.73952 0.28992 0.0
O24 O 0.68112 0.86548 0.30129 0.0
Cd25 Cd 0.66013 0.77571 0.2287 0.0
O26 O 0.61265 0.75963 0.12783 0.0
C27 C 0.62733 0.81414 0.09592 0.0
O28 O 0.67001 0.86613 0.124 0.0
C29 C 0.7352 0.89088 0.3319 0.0
C30 C 0.90736 0.7092 0.27711 0.0
O31 O 0.88266 0.70433 0.33338 0.0
O32 O 0.87477 0.72971 0.22868 0.0
O33 O 0.81154 0.37654 0.72217 0.0
Cd34 Cd 0.7217 0.27824 0.70224 0.0
O35 O 0.81113 0.37086 0.83091 0.0
Cd36 Cd 0.7207 0.29417 0.83299 0.0
O37 O 0.62759 0.26268 0.87707 0.0
C38 C 0.58073 0.28961 0.85457 0.0
O39 O 0.58887 0.32694 0.80228 0.0
C40 C 0.83624 0.39747 0.7801 0.0
C41 C 0.73666 0.19555 0.59004 0.0
O42 O 0.69396 0.23463 0.58815 0.0
O43 O 0.77149 0.19544 0.64409 0.0
O44 O 0.87928 0.91051 0.61291 0.0
Cd45 Cd 0.8489 0.81806 0.69125 0.0
O46 O 0.78971 0.94624 0.6381 0.0
Cd47 Cd 0.7628 0.8934 0.72751 0.0
O48 O 0.6933 0.88578 0.80384 0.0
C49 C 0.67948 0.94133 0.82982 0.0
O50 O 0.70947 1.00218 0.81292 0.0
C51 C 0.83768 0.94945 0.60258 0.0
C52 C 0.91834 0.70908 0.70743 0.0
O53 O 0.88518 0.71322 0.65302 0.0
O54 O 0.92112 0.75744 0.75298 0.0
O55 O 0.91986 0.40138 0.19976 0.0
Cd56 Cd 0.85319 0.28383 0.19738 0.0
O57 O 0.87033 0.44179 0.1139 0.0
Cd58 Cd 0.77519 0.37827 0.11773 0.0
O59 O 0.67247 0.3778 0.0952 0.0
C60 C 0.65131 0.43413 0.0862 0.0
O61 O 0.69129 0.49411 0.09348 0.0
C62 C 0.91804 0.4465 0.15625 0.0
C63 C 0.85205 0.2057 0.3114 0.0
O64 O 0.90032 0.21127 0.27535 0.0
O65 O 0.80662 0.23877 0.2954 0.0
O66 O 0.31341 0.37726 0.82157 0.0
Cd67 Cd 0.23155 0.34864 0.72663 0.0
O68 O 0.36895 0.47851 0.79749 0.0
Cd69 Cd 0.3238 0.45436 0.69793 0.0
O70 O 0.31823 0.37204 0.62032 0.0
C71 C 0.36967 0.35179 0.60486 0.0
O72 O 0.42561 0.3835 0.63277 0.0
C73 C 0.35749 0.43005 0.83727 0.0
C74 C 0.12929 0.42247 0.72471 0.0
O75 O 0.13212 0.37417 0.76504 0.0
O76 O 0.17494 0.43685 0.68588 0.0
O77 O 0.44416 0.99301 0.13943 0.0
Cd78 Cd 0.39966 0.95609 0.2428 0.0
O79 O 0.36852 0.91548 0.08379 0.0
Cd80 Cd 0.29399 0.89115 0.15389 0.0
O81 O 0.20929 0.81696 0.17914 0.0
C82 C 0.16905 0.78708 0.13272 0.0
O83 O 0.17734 0.80381 0.07124 0.0
C84 C 0.42132 0.95893 0.08579 0.0
C85 C 0.38886 0.06112 0.33537 0.0
O86 O 0.44382 0.04342 0.32895 0.0
O87 O 0.34041 0.03075 0.29716 0.0
C88 C 0.96776 0.5093 0.1592 0.0
C89 C 0.11897 0.72799 0.1465 0.0
O90 O -0.00505 0.53357 0.21574 0.0
Zn91 Zn 0.06098 0.62397 0.25589 0.0
O92 O 0.97972 0.54292 0.10753 0.0
Zn93 Zn 0.04034 0.62006 0.15024 0.0
O94 O 0.1173 0.57026 0.18303 0.0
O95 O 0.13069 0.57974 0.29267 0.0
O96 O 0.08355 0.69301 0.09915 0.0
O97 O 0.11462 0.70835 0.20602 0.0
O98 O 0.00417 0.66762 0.31142 0.0
O99 O 0.9773 0.66929 0.20444 0.0
C100 C 0.14705 0.55798 0.237 0.0
C101 C 0.96702 0.68325 0.26469 0.0
C102 C 0.89455 0.45211 0.78858 0.0
C103 C 0.09025 0.621 0.85424 0.0
O104 O 0.91659 0.47683 0.84615 0.0
Zn105 Zn -0.00874 0.54109 0.82196 0.0
O106 O 0.92377 0.47447 0.73785 0.0
Zn107 Zn 0.00776 0.55028 0.72066 0.0
O108 O 0.06336 0.49698 0.67708 0.0
O109 O 0.0536 0.4742 0.78253 0.0
O110 O 0.07962 0.611 0.79109 0.0
O111 O 0.04947 0.59169 0.89262 0.0
O112 O 0.95373 0.62544 0.77659 0.0
O113 O 0.97338 0.61961 0.67078 0.0
C114 C 0.07835 0.46462 0.72722 0.0
C115 C 0.95026 0.64904 0.7185 0.0
C116 C 0.29927 0.07893 0.55836 0.0
C117 C 0.25621 0.23811 0.38887 0.0
O118 O 0.24445 0.09129 0.53822 0.0
Zn119 Zn 0.27447 0.1631 0.47761 0.0
O120 O 0.3506 0.11492 0.53865 0.0
Zn121 Zn 0.37607 0.19858 0.47585 0.0
O122 O 0.41675 0.27676 0.53468 0.0
O123 O 0.31107 0.25384 0.54067 0.0
O124 O 0.31617 0.24424 0.40737 0.0
O125 O 0.21402 0.19599 0.41637 0.0
O126 O 0.32262 0.10941 0.40688 0.0
O127 O 0.42672 0.15555 0.41515 0.0
C128 C 0.36607 0.29169 0.55794 0.0
C129 C 0.37963 0.11151 0.38782 0.0
C130 C 0.58883 0.8266 0.03609 0.0
C131 C 0.43568 0.85836 0.85224 0.0
O132 O 0.55004 0.7779 0.00308 0.0
Zn133 Zn 0.51356 0.8379 0.94143 0.0
O134 O 0.59127 0.88986 0.02083 0.0
Zn135 Zn 0.54538 0.94918 0.95306 0.0
O136 O 0.50455 1.00408 0.01549 0.0
O137 O 0.46309 0.89154 0.0074 0.0
O138 O 0.47096 0.91552 0.87573 0.0
O139 O 0.44375 0.80078 0.87548 0.0
O140 O 0.59334 0.87803 0.88481 0.0
O141 O 0.61651 0.99237 0.90504 0.0
C142 C 0.4635 0.95295 0.03213 0.0
C143 C 0.62792 0.93739 0.87567 0.0
C144 C 0.83821 0.99383 0.54571 0.0
C145 C 0.84475 0.15737 0.36558 0.0
O146 O 0.78333 1.00434 0.52178 0.0
Zn147 Zn 0.74246 0.05991 0.44543 0.0
O148 O 0.88999 0.02346 0.52183 0.0
Zn149 Zn 0.84591 0.07403 0.45629 0.0
O150 O 0.80188 0.1392 0.5224 0.0
O151 O 0.69632 0.11739 0.49744 0.0
O152 O 0.89279 0.13794 0.39534 0.0
O153 O 0.78777 0.13206 0.38059 0.0
O154 O 0.69538 0.98389 0.38658 0.0
O155 O 0.80054 0.98649 0.39309 0.0
C156 C 0.74507 0.15021 0.53283 0.0
C157 C 0.74359 0.95736 0.37106 0.0
C158 C 0.5862 0.43013 0.05472 0.0
C159 C 0.40209 0.42763 0.89538 0.0
O160 O 0.55015 0.37008 0.04476 0.0
Zn161 Zn 0.46283 0.32342 -0.01099 0.0
O162 O 0.56916 0.48307 0.0292 0.0
Zn163 Zn 0.49109 0.43412 -0.01959 0.0
O164 O 0.42763 0.40677 0.05639 0.0
O165 O 0.40189 0.29208 0.05543 0.0
O166 O 0.44226 0.48125 0.9179 0.0
O167 O 0.40523 0.36801 0.91811 0.0
O168 O 0.50001 0.25862 0.93238 0.0
O169 O 0.53253 0.36975 0.9138 0.0
C170 C 0.39663 0.3518 0.0798 0.0
C171 C 0.53357 0.30535 0.90058 0.0
loop_
_geom_bond_atom_site_label_1
_geom_bond_atom_site_label_2
_geom_bond_distance
_geom_bond_site_symmetry_2
_ccdc_geom_bond_type
O0 Cd1 2.300 . S
O0 C7 1.275 . S
Cd1 O0 2.300 . S
Cd1 O9 2.381 . S
Cd1 O10 2.378 . S
O2 Cd3 2.385 . S
O2 C7 1.255 . S
Cd3 O2 2.385 . S
Cd3 O4 2.317 . S
O4 Cd3 2.317 . S
O4 C5 1.232 . S
C5 O4 1.232 . S
C5 O6 1.218 . S
O6 C5 1.218 . S
C7 O0 1.275 . S
C7 O2 1.255 . S
C8 O9 1.258 . S
C8 O10 1.256 . S
O9 Cd1 2.381 . S
O9 C8 1.258 . S
O10 Cd1 2.378 . S
O10 C8 1.256 . S
O11 Cd12 2.300 . S
O11 C18 1.275 . S
Cd12 O11 2.300 . S
Cd12 O20 2.381 1_565 S
Cd12 O21 2.378 . S
O13 Cd14 2.385 . S
O13 C18 1.255 . S
Cd14 O13 2.385 . S
Cd14 O15 2.317 . S
O15 Cd14 2.317 . S
O15 C16 1.232 . S
C16 O15 1.232 . S
C16 O17 1.218 . S
O17 C16 1.218 . S
C18 O11 1.275 . S
C18 O13 1.255 . S
C19 O20 1.258 . S
C19 O21 1.256 1_545 S
O20 Cd12 2.381 1_545 S
O20 C19 1.258 . S
O21 Cd12 2.378 . S
O21 C19 1.256 1_565 S
O22 Cd23 2.300 . S
O22 C29 1.275 . S
Cd23 O22 2.300 . S
Cd23 O31 2.381 . S
Cd23 O32 2.378 . S
O24 Cd25 2.385 . S
O24 C29 1.255 . S
Cd25 O24 2.385 . S
Cd25 O26 2.317 . S
O26 Cd25 2.317 . S
O26 C27 1.232 . S
C27 O26 1.232 . S
C27 O28 1.218 . S
O28 C27 1.218 . S
C29 O22 1.275 . S
C29 O24 1.255 . S
C30 O31 1.258 . S
C30 O32 1.256 . S
O31 Cd23 2.381 . S
O31 C30 1.258 . S
O32 Cd23 2.378 . S
O32 C30 1.256 . S
O33 Cd34 2.300 . S
O33 C40 1.275 . S
Cd34 O33 2.300 . S
Cd34 O42 2.381 . S
Cd34 O43 2.378 . S
O35 Cd36 2.385 . S
O35 C40 1.255 . S
Cd36 O35 2.385 . S
Cd36 O37 2.317 . S
O37 Cd36 2.317 . S
O37 C38 1.232 . S
C38 O37 1.232 . S
C38 O39 1.218 . S
O39 C38 1.218 . S
C40 O33 1.275 . S
C40 O35 1.255 . S
C41 O42 1.258 . S
C41 O43 1.256 . S
O42 Cd34 2.381 . S
O42 C41 1.258 . S
O43 Cd34 2.378 . S
O43 C41 1.256 . S
O44 Cd45 2.300 . S
O44 C51 1.275 . S
Cd45 O44 2.300 . S
Cd45 O53 2.381 . S
Cd45 O54 2.378 . S
O46 Cd47 2.385 . S
O46 C51 1.255 . S
Cd47 O46 2.385 . S
Cd47 O48 2.317 . S
O48 Cd47 2.317 . S
O48 C49 1.232 . S
C49 O48 1.232 . S
C49 O50 1.218 . S
O50 C49 1.218 . S
C51 O44 1.275 . S
C51 O46 1.255 . S
C52 O53 1.258 . S
C52 O54 1.256 . S
O53 Cd45 2.381 . S
O53 C52 1.258 . S
O54 Cd45 2.378 . S
O54 C52 1.256 . S
O55 Cd56 2.300 . S
O55 C62 1.275 . S
Cd56 O55 2.300 . S
Cd56 O64 2.381 . S
Cd56 O65 2.378 . S
O57 Cd58 2.385 . S
O57 C62 1.255 . S
Cd58 O57 2.385 . S
Cd58 O59 2.317 . S
O59 Cd58 2.317 . S
O59 C60 1.232 . S
C60 O59 1.232 . S
C60 O61 1.218 . S
O61 C60 1.218 . S
C62 O55 1.275 . S
C62 O57 1.255 . S
C63 O64 1.258 . S
C63 O65 1.256 . S
O64 Cd56 2.381 . S
O64 C63 1.258 . S
O65 Cd56 2.378 . S
O65 C63 1.256 . S
O66 Cd67 2.300 . S
O66 C73 1.275 . S
Cd67 O66 2.300 . S
Cd67 O75 2.381 . S
Cd67 O76 2.378 . S
O68 Cd69 2.385 . S
O68 C73 1.255 . S
Cd69 O68 2.385 . S
Cd69 O70 2.317 . S
O70 Cd69 2.317 . S
O70 C71 1.232 . S
C71 O70 1.232 . S
C71 O72 1.218 . S
O72 C71 1.218 . S
C73 O66 1.275 . S
C73 O68 1.255 . S
C74 O75 1.258 . S
C74 O76 1.256 . S
O75 Cd67 2.381 . S
O75 C74 1.258 . S
O76 Cd67 2.378 . S
O76 C74 1.256 . S
O77 Cd78 2.300 . S
O77 C84 1.275 . S
Cd78 O77 2.300 . S
Cd78 O86 2.381 . S
Cd78 O87 2.378 1_565 S
O79 Cd80 2.385 . S
O79 C84 1.255 . S
Cd80 O79 2.385 . S
Cd80 O81 2.317 . S
O81 Cd80 2.317 . S
O81 C82 1.232 . S
C82 O81 1.232 . S
C82 O83 1.218 . S
O83 C82 1.218 . S
C84 O77 1.275 . S
C84 O79 1.255 . S
C85 O86 1.258 1_545 S
C85 O87 1.256 . S
O86 Cd78 2.381 . S
O86 C85 1.258 1_565 S
O87 Cd78 2.378 1_545 S
O87 C85 1.256 . S
C88 O90 1.247 . S
C88 O92 1.258 . S
C89 O96 1.247 . S
C89 O97 1.258 . S
O90 C88 1.247 . S
O90 Zn91 2.028 1_655 S
Zn91 O90 2.028 1_455 S
Zn91 O95 2.035 . S
Zn91 O97 2.035 . S
Zn91 O98 2.028 1_455 S
O92 C88 1.258 . S
O92 Zn93 2.035 1_655 S
Zn93 O92 2.035 1_455 S
Zn93 O94 2.028 . S
Zn93 O96 2.028 . S
Zn93 O99 2.035 1_455 S
O94 Zn93 2.028 . S
O94 C100 1.247 . S
O95 Zn91 2.035 . S
O95 C100 1.258 . S
O96 C89 1.247 . S
O96 Zn93 2.028 . S
O97 C89 1.258 . S
O97 Zn91 2.035 . S
O98 Zn91 2.028 1_655 S
O98 C101 1.247 . S
O99 Zn93 2.035 1_655 S
O99 C101 1.258 . S
C100 O94 1.247 . S
C100 O95 1.258 . S
C101 O98 1.247 . S
C101 O99 1.258 . S
C102 O104 1.247 . S
C102 O106 1.258 . S
C103 O110 1.247 . S
C103 O111 1.258 . S
O104 C102 1.247 . S
O104 Zn105 2.028 1_655 S
Zn105 O104 2.028 1_455 S
Zn105 O109 2.035 . S
Zn105 O111 2.035 . S
Zn105 O112 2.028 1_455 S
O106 C102 1.258 . S
O106 Zn107 2.035 1_655 S
Zn107 O106 2.035 1_455 S
Zn107 O108 2.028 . S
Zn107 O110 2.028 . S
Zn107 O113 2.035 1_455 S
O108 Zn107 2.028 . S
O108 C114 1.247 . S
O109 Zn105 2.035 . S
O109 C114 1.258 . S
O110 C103 1.247 . S
O110 Zn107 2.028 . S
O111 C103 1.258 . S
O111 Zn105 2.035 . S
O112 Zn105 2.028 1_655 S
O112 C115 1.247 . S
O113 Zn107 2.035 1_655 S
O113 C115 1.258 . S
C114 O108 1.247 . S
C114 O109 1.258 . S
C115 O112 1.247 . S
C115 O113 1.258 . S
C116 O118 1.247 . S
C116 O120 1.258 . S
C117 O124 1.247 . S
C117 O125 1.258 . S
O118 C116 1.247 . S
O118 Zn119 2.028 . S
Zn119 O118 2.028 . S
Zn119 O123 2.035 . S
Zn119 O125 2.035 . S
Zn119 O126 2.028 . S
O120 C116 1.258 . S
O120 Zn121 2.035 . S
Zn121 O120 2.035 . S
Zn121 O122 2.028 . S
Zn121 O124 2.028 . S
Zn121 O127 2.035 . S
O122 Zn121 2.028 . S
O122 C128 1.247 . S
O123 Zn119 2.035 . S
O123 C128 1.258 . S
O124 C117 1.247 . S
O124 Zn121 2.028 . S
O125 C117 1.258 . S
O125 Zn119 2.035 . S
O126 Zn119 2.028 . S
O126 C129 1.247 . S
O127 Zn121 2.035 . S
O127 C129 1.258 . S
C128 O122 1.247 . S
C128 O123 1.258 . S
C129 O126 1.247 . S
C129 O127 1.258 . S
C130 O132 1.247 . S
C130 O134 1.258 . S
C131 O138 1.247 . S
C131 O139 1.258 . S
O132 C130 1.247 . S
O132 Zn133 2.028 . S
Zn133 O132 2.028 . S
Zn133 O137 2.035 . S
Zn133 O139 2.035 1_554 S
Zn133 O140 2.028 1_554 S
O134 C130 1.258 . S
O134 Zn135 2.035 . S
Zn135 O134 2.035 . S
Zn135 O136 2.028 . S
Zn135 O138 2.028 1_554 S
Zn135 O141 2.035 1_554 S
O136 Zn135 2.028 . S
O136 C142 1.247 . S
O137 Zn133 2.035 . S
O137 C142 1.258 . S
O138 C131 1.247 . S
O138 Zn135 2.028 1_556 S
O139 C131 1.258 . S
O139 Zn133 2.035 1_556 S
O140 Zn133 2.028 1_556 S
O140 C143 1.247 . S
O141 Zn135 2.035 1_556 S
O141 C143 1.258 . S
C142 O136 1.247 . S
C142 O137 1.258 . S
C143 O140 1.247 . S
C143 O141 1.258 . S
C144 O146 1.247 . S
C144 O148 1.258 . S
C145 O152 1.247 . S
C145 O153 1.258 . S
O146 C144 1.247 . S
O146 Zn147 2.028 . S
Zn147 O146 2.028 . S
Zn147 O151 2.035 1_565 S
Zn147 O153 2.035 1_565 S
Zn147 O154 2.028 . S
O148 C144 1.258 . S
O148 Zn149 2.035 1_565 S
Zn149 O148 2.035 1_545 S
Zn149 O150 2.028 . S
Zn149 O152 2.028 . S
Zn149 O155 2.035 1_545 S
O150 Zn149 2.028 . S
O150 C156 1.247 . S
O151 Zn147 2.035 1_545 S
O151 C156 1.258 . S
O152 C145 1.247 . S
O152 Zn149 2.028 . S
O153 C145 1.258 . S
O153 Zn147 2.035 1_545 S
O154 Zn147 2.028 . S
O154 C157 1.247 . S
O155 Zn149 2.035 1_565 S
O155 C157 1.258 . S
C156 O150 1.247 . S
C156 O151 1.258 . S
C157 O154 1.247 . S
C157 O155 1.258 . S
C158 O160 1.247 . S
C158 O162 1.258 . S
C159 O166 1.247 . S
C159 O167 1.258 . S
O160 C158 1.247 . S
O160 Zn161 2.028 . S
Zn161 O160 2.028 . S
Zn161 O165 2.035 . S
Zn161 O167 2.035 1_554 S
Zn161 O168 2.028 1_554 S
O162 C158 1.258 . S
O162 Zn163 2.035 . S
Zn163 O162 2.035 . S
Zn163 O164 2.028 . S
Zn163 O166 2.028 1_554 S
Zn163 O169 2.035 1_554 S
O164 Zn163 2.028 . S
O164 C170 1.247 . S
O165 Zn161 2.035 . S
O165 C170 1.258 . S
O166 C159 1.247 . S
O166 Zn163 2.028 1_556 S
O167 C159 1.258 . S
O167 Zn161 2.035 1_556 S
O168 Zn161 2.028 1_556 S
O168 C171 1.247 . S
O169 Zn163 2.035 1_556 S
O169 C171 1.258 . S
C170 O164 1.247 . S
C170 O165 1.258 . S
C171 O168 1.247 . S
C171 O169 1.258 . S
C100 C5 1.894 . S
C103 C16 1.185 . S
C101 C30 1.980 . S
C102 C40 1.578 . S
C117 C8 1.575 . S
C131 C18 1.210 . S
C29 C157 1.888 . S
C171 C38 1.525 . S
C116 C19 1.528 . S
C27 C130 1.684 . S
C156 C41 1.514 . S
C170 C7 1.604 . S
C52 C115 1.838 . S
C88 C62 1.869 . S
C74 C114 1.565 . S
C82 C89 1.076 . S
C144 C51 1.821 . S
C158 C60 1.288 . S
C128 C71 1.265 . S
C84 C142 1.319 . S
C145 C63 1.650 . S
C159 C73 1.470 . S
C129 C85 1.538 . S
C49 C143 1.388 . S
