# Generated by pormake.
# Topology anh, (6,3)-cn, num edge types: 1
# Building blocks:
#     Node 0, Type 0, BuildingBlock: VOLQOD_clean_sbu_1, # of connection points: 6
#     Node 1, Type 0, BuildingBlock: VOLQOD_clean_sbu_1, # of connection points: 6
#     Node 2, Type 0, BuildingBlock: VOLQOD_clean_sbu_1, # of connection points: 6
#     Node 3, Type 1, BuildingBlock: OLANEW_clean_sbu_2, # of connection points: 3
#     Node 4, Type 1, BuildingBlock: OLANEW_clean_sbu_2, # of connection points: 3
#     Node 5, Type 1, BuildingBlock: OLANEW_clean_sbu_2, # of connection points: 3
#     Node 6, Type 1, BuildingBlock: OLANEW_clean_sbu_2, # of connection points: 3
#     Node 7, Type 1, BuildingBlock: OLANEW_clean_sbu_2, # of connection points: 3
#     Node 8, Type 1, BuildingBlock: OLANEW_clean_sbu_2, # of connection points: 3
#     Edge 9, Type (0, 1), BuildingBlock: EYOCIG_clean_linker_4, # of connection points: 2
#     Edge 10, Type (0, 1), BuildingBlock: EYOCIG_clean_linker_4, # of connection points: 2
#     Edge 11, Type (0, 1), BuildingBlock: EYOCIG_clean_linker_4, # of connection points: 2
#     Edge 12, Type (0, 1), BuildingBlock: EYOCIG_clean_linker_4, # of connection points: 2
#     Edge 13, Type (0, 1), BuildingBlock: EYOCIG_clean_linker_4, # of connection points: 2
#     Edge 14, Type (0, 1), BuildingBlock: EYOCIG_clean_linker_4, # of connection points: 2
#     Edge 15, Type (0, 1), BuildingBlock: EYOCIG_clean_linker_4, # of connection points: 2
#     Edge 16, Type (0, 1), BuildingBlock: EYOCIG_clean_linker_4, # of connection points: 2
#     Edge 17, Type (0, 1), BuildingBlock: EYOCIG_clean_linker_4, # of connection points: 2
#     Edge 18, Type (0, 1), BuildingBlock: EYOCIG_clean_linker_4, # of connection points: 2
#     Edge 19, Type (0, 1), BuildingBlock: EYOCIG_clean_linker_4, # of connection points: 2
#     Edge 20, Type (0, 1), BuildingBlock: EYOCIG_clean_linker_4, # of connection points: 2
#     Edge 21, Type (0, 1), BuildingBlock: EYOCIG_clean_linker_4, # of connection points: 2
#     Edge 22, Type (0, 1), BuildingBlock: EYOCIG_clean_linker_4, # of connection points: 2
#     Edge 23, Type (0, 1), BuildingBlock: EYOCIG_clean_linker_4, # of connection points: 2
#     Edge 24, Type (0, 1), BuildingBlock: EYOCIG_clean_linker_4, # of connection points: 2
#     Edge 25, Type (0, 1), BuildingBlock: EYOCIG_clean_linker_4, # of connection points: 2
#     Edge 26, Type (0, 1), BuildingBlock: EYOCIG_clean_linker_4, # of connection points: 2
# Relax obj value: 0.161
# Max RMSD: 0.206
# Mean RMSD: 0.140
data_MOF--net-anh--node1-VOLQOD_clean_sbu_1--node2-OLANEW_clean_sbu_2--edge1-EYOCIG_clean_linker_4
_symmetry_space_group_name_H-M    P1
_symmetry_Int_Tables_number       1
_symmetry_cell_setting            triclinic
loop_
_symmetry_equiv_pos_as_xyz
'x, y, z'
_cell_length_a     26.818808
_cell_length_b     26.725851
_cell_length_c     49.153933
_cell_angle_alpha  90.089177
_cell_angle_beta   90.011739
_cell_angle_gamma 120.36451
loop_
_atom_site_label
_atom_site_type_symbol
_atom_site_fract_x
_atom_site_fract_y
_atom_site_fract_z
_atom_type_partial_charge
O0 O 0.96015 0.5154 0.20683 0.0
Zn1 Zn -0.03338 0.53947 0.16756 0.0
O2 O -0.02336 0.48501 0.14484 0.0
Zn3 Zn 0.91145 0.4439 0.12054 0.0
Zn4 Zn -0.01598 0.42905 0.16769 0.0
Zn5 Zn 0.0444 0.52722 0.12234 0.0
O6 O 0.93529 0.45187 0.08124 0.0
O7 O 0.02513 0.52716 0.08273 0.0
O8 O 0.89437 0.54192 0.15681 0.0
O9 O 0.85935 0.47626 0.12356 0.0
O10 O 0.86117 0.36126 0.13203 0.0
O11 O 0.90925 0.35184 0.16666 0.0
O12 O 0.05257 0.42089 0.15599 0.0
O13 O 0.03872 0.61936 0.16648 0.0
O14 O 0.09276 0.49039 0.12468 0.0
O15 O 0.09395 0.6077 0.13633 0.0
C16 C -0.02387 0.48439 0.21952 0.0
C17 C -0.01931 0.4907 0.06947 0.0
C18 C 0.86483 0.33192 0.15143 0.0
C19 C 0.85649 0.51326 0.13865 0.0
C20 C 0.09176 0.44975 0.13845 0.0
C21 C 0.08611 0.6384 0.15361 0.0
O22 O -0.00757 0.45313 0.20722 0.0
O23 O 0.43964 -0.00288 0.41727 0.0
Zn24 Zn 0.41789 -0.0084 0.457 0.0
O25 O 0.47367 -0.01726 0.47923 0.0
Zn26 Zn 0.51615 0.04935 0.50278 0.0
Zn27 Zn 0.5283 0.9742 0.45599 0.0
Zn28 Zn 0.4328 0.91566 0.50245 0.0
O29 O 0.51109 0.02753 0.54224 0.0
O30 O 0.4366 0.93701 0.54203 0.0
O31 O 0.41539 0.06415 0.4681 0.0
O32 O 0.4838 0.10167 0.49998 0.0
O33 O 0.59765 0.09849 0.49027 0.0
O34 O 0.60637 0.04795 0.4565 0.0
O35 O 0.53504 0.90433 0.4668 0.0
O36 O 0.33866 0.91853 0.45909 0.0
O37 O 0.46844 0.86637 0.49939 0.0
O38 O 0.35113 0.86501 0.48998 0.0
C39 C 0.4707 -0.01886 0.40462 0.0
C40 C 0.47361 -0.01769 0.55465 0.0
C41 C 0.62671 0.09329 0.47124 0.0
C42 C 0.44534 0.10331 0.48561 0.0
C43 C 0.50713 0.86582 0.48476 0.0
C44 C 0.31999 0.87175 0.47258 0.0
O45 O 0.50277 0.96605 0.41693 0.0
O46 O 0.43253 0.45339 0.75015 0.0
Zn47 Zn 0.41336 0.42976 0.78937 0.0
O48 O 0.47773 0.48431 0.81237 0.0
Zn49 Zn 0.45304 0.52507 0.83638 0.0
Zn50 Zn 0.54197 0.5408 0.78991 0.0
Zn51 Zn 0.50293 0.44218 0.83499 0.0
O52 O 0.46779 0.51673 0.87576 0.0
O53 O 0.4836 0.44258 0.87453 0.0
O54 O 0.33835 0.42762 0.79929 0.0
O55 O 0.36843 0.49277 0.83274 0.0
O56 O 0.48621 0.60784 0.82506 0.0
O57 O 0.54466 0.61788 0.79074 0.0
O58 O 0.61861 0.54911 0.80183 0.0
O59 O 0.40459 0.34975 0.79084 0.0
O60 O 0.58841 0.47876 0.8327 0.0
O61 O 0.47137 0.36156 0.82116 0.0
C62 C 0.48016 0.48476 0.73784 0.0
C63 C 0.47479 0.47846 0.88764 0.0
C64 C 0.51982 0.63749 0.80584 0.0
C65 C 0.32879 0.45611 0.81733 0.0
C66 C 0.62851 0.51973 0.81915 0.0
C67 C 0.43266 0.33074 0.80387 0.0
O68 O 0.52733 0.51667 0.75047 0.0
O69 O 0.49329 0.01207 0.25399 0.0
Cd70 Cd 0.50347 0.0147 0.20436 0.0
O71 O 0.47325 0.92169 0.2591 0.0
Cd72 Cd 0.46082 0.90367 0.21572 0.0
O73 O 0.38749 0.86295 0.18804 0.0
C74 C 0.3406 0.82808 0.19997 0.0
O75 O 0.34113 0.81797 0.22605 0.0
C76 C 0.48297 0.96953 0.26922 0.0
C77 C 0.61098 0.10492 0.18769 0.0
O78 O 0.56849 0.11348 0.19091 0.0
O79 O 0.60308 0.05428 0.19223 0.0
O80 O 0.48604 0.46647 0.58678 0.0
Cd81 Cd 0.47679 0.45811 0.53718 0.0
O82 O 0.41584 0.4855 0.59337 0.0
Cd83 Cd 0.40905 0.49946 0.55032 0.0
O84 O 0.4386 0.5706 0.52153 0.0
C85 C 0.45191 0.61874 0.53257 0.0
O86 O 0.44447 0.62105 0.55883 0.0
C87 C 0.45424 0.47573 0.60269 0.0
C88 C 0.46128 0.35219 0.51913 0.0
O89 O 0.51216 0.39593 0.52228 0.0
O90 O 0.41779 0.35809 0.52438 0.0
O91 O 0.0112 0.50394 0.91862 0.0
Cd92 Cd 0.01231 0.49586 0.86896 0.0
O93 O 0.92062 0.43421 0.92428 0.0
Cd94 Cd 0.90172 0.42747 0.88104 0.0
O95 O 0.8591 0.45731 0.85333 0.0
C96 C 0.82518 0.47031 0.86525 0.0
O97 O 0.81713 0.46249 0.89159 0.0
C98 C -0.03112 0.47228 0.93409 0.0
C99 C 0.10087 0.47824 0.85083 0.0
O100 O 0.11007 0.52966 0.85453 0.0
O101 O 0.05045 0.43522 0.85573 0.0
O102 O -0.00519 0.50626 0.37054 0.0
Cd103 Cd -0.00614 0.5158 0.42016 0.0
O104 O 0.90431 0.48321 0.36359 0.0
Cd105 Cd 0.88351 0.47017 0.40673 0.0
O106 O 0.84373 0.39779 0.43503 0.0
C107 C 0.80789 0.35035 0.42365 0.0
O108 O 0.79601 0.34987 0.39771 0.0
C109 C 0.95324 0.4947 0.35446 0.0
C110 C 0.08468 0.6225 0.4378 0.0
O111 O 0.09191 0.57899 0.43479 0.0
O112 O 0.03495 0.616 0.43268 0.0
O113 O 0.46148 0.95291 0.70543 0.0
Cd114 Cd 0.46953 0.95044 0.75498 0.0
O115 O 0.53239 0.04326 0.69999 0.0
Cd116 Cd 0.5381 0.06265 0.74319 0.0
O117 O 0.5065 0.10496 0.77026 0.0
C118 C 0.49464 0.13942 0.75799 0.0
O119 O 0.5048 0.14837 0.73181 0.0
C120 C 0.49393 -0.0048 0.69006 0.0
C121 C 0.48998 0.86225 0.7709 0.0
O122 O 0.43822 0.85202 0.76787 0.0
O123 O 0.53196 0.91365 0.76658 0.0
O124 O 0.48935 0.4646 0.03843 0.0
Cd125 Cd 0.49906 0.47288 0.08801 0.0
O126 O 0.47 0.53501 0.03277 0.0
Cd127 Cd 0.45723 0.54112 0.07598 0.0
O128 O 0.38435 0.51086 0.10358 0.0
C129 C 0.33741 0.49831 0.0917 0.0
O130 O 0.33733 0.50674 0.0654 0.0
C131 C 0.47947 0.49665 0.02296 0.0
C132 C 0.606 0.49104 0.10535 0.0
O133 O 0.56336 0.43951 0.10194 0.0
O134 O 0.5986 0.53391 0.10058 0.0
C135 C 0.18337 0.44245 0.12779 0.0
C136 C 0.1392 0.44007 0.1348 0.0
C137 C 0.23801 0.45713 0.11729 0.0
C138 C 0.28459 0.47595 0.10669 0.0
C139 C 0.71816 0.19179 0.457 0.0
C140 C 0.67725 0.145 0.46228 0.0
C141 C 0.75581 0.24904 0.44823 0.0
C142 C 0.78132 0.29689 0.43847 0.0
C143 C 0.51903 0.73283 0.79272 0.0
C144 C 0.52073 0.68965 0.79798 0.0
C145 C 0.51028 0.779 0.78548 0.0
C146 C 0.50091 0.81693 0.77883 0.0
C147 C 0.76173 0.51717 0.13009 0.0
C148 C 0.80645 0.51909 0.1357 0.0
C149 C 0.7076 0.50913 0.12196 0.0
C150 C 0.66118 0.50073 0.11438 0.0
C151 C 0.22062 0.77801 0.46042 0.0
C152 C 0.26557 0.82192 0.4653 0.0
C153 C 0.17173 0.72426 0.45327 0.0
C154 C 0.13181 0.67795 0.4462 0.0
C155 C 0.43311 0.23592 0.79009 0.0
C156 C 0.42957 0.27809 0.79516 0.0
C157 C 0.44977 0.19605 0.78165 0.0
C158 C 0.47018 0.16869 0.77227 0.0
C159 C 0.51102 0.77194 0.49472 0.0
C160 C 0.51507 0.81703 0.4878 0.0
C161 C 0.49463 0.71695 0.50555 0.0
C162 C 0.47505 0.67072 0.51673 0.0
C163 C 0.72735 0.52646 0.82951 0.0
C164 C 0.68562 0.5291 0.82269 0.0
C165 C 0.7672 0.51155 0.83978 0.0
C166 C 0.79487 0.49267 0.85027 0.0
C167 C 0.18208 0.73306 0.16752 0.0
C168 C 0.13598 0.69101 0.16242 0.0
C169 C 0.23897 0.77265 0.17597 0.0
C170 C 0.28691 0.79961 0.18543 0.0
C171 C 0.43957 0.19745 0.49441 0.0
C172 C 0.4386 0.15298 0.48885 0.0
C173 C 0.44601 0.25124 0.50246 0.0
C174 C 0.45303 0.29733 0.51006 0.0
C175 C 0.23003 0.45243 0.82528 0.0
C176 C 0.2728 0.45032 0.81987 0.0
C177 C 0.18407 0.46051 0.83351 0.0
C178 C 0.14623 0.4688 0.84141 0.0
C179 C 0.76837 0.23638 0.16474 0.0
C180 C 0.81326 0.27972 0.1593 0.0
C181 C 0.71365 0.18977 0.17232 0.0
C182 C 0.66668 0.15124 0.17933 0.0
C183 C -0.01881 0.49157 0.01587 0.0
C184 C -0.01782 0.49221 0.04035 0.0
C185 C -0.02151 0.48698 -0.01272 0.0
C186 C -0.0251 0.48088 0.96295 0.0
C187 C 0.47229 -0.02035 0.35099 0.0
C188 C 0.4705 -0.01915 0.37545 0.0
C189 C 0.47621 0.97751 0.32244 0.0
C190 C 0.47944 0.97452 0.29811 0.0
C191 C 0.47696 0.48276 0.68425 0.0
C192 C 0.48007 0.48477 0.7087 0.0
C193 C 0.47032 0.47977 0.65575 0.0
C194 C 0.46348 0.47779 0.63148 0.0
C195 C 0.47555 -0.01667 0.60826 0.0
C196 C 0.47401 -0.01793 0.58378 0.0
C197 C 0.48017 -0.0141 0.63684 0.0
C198 C 0.48585 -0.01063 0.66118 0.0
C199 C 0.47354 0.47759 0.94122 0.0
C200 C 0.47432 0.47696 0.91675 0.0
C201 C 0.47497 0.4822 0.96979 0.0
C202 C 0.47717 0.48828 -0.00589 0.0
C203 C -0.02822 0.4861 0.2731 0.0
C204 C -0.02557 0.48407 0.24868 0.0
C205 C -0.03343 0.48945 0.30152 0.0
C206 C 0.96085 0.49194 0.32572 0.0
loop_
_geom_bond_atom_site_label_1
_geom_bond_atom_site_label_2
_geom_bond_distance
_geom_bond_site_symmetry_2
_ccdc_geom_bond_type
O0 Zn1 1.953 . S
O0 C16 1.225 1_655 S
Zn1 O0 1.953 . S
Zn1 O2 1.949 1_655 S
Zn1 O8 1.919 . S
Zn1 O13 1.924 1_655 S
O2 Zn1 1.949 1_455 S
O2 Zn3 1.923 1_455 S
O2 Zn4 1.950 . S
O2 Zn5 1.945 . S
Zn3 O2 1.923 1_655 S
Zn3 O6 1.933 . S
Zn3 O9 1.941 . S
Zn3 O10 1.965 . S
Zn4 O2 1.950 . S
Zn4 O11 1.938 1_455 S
Zn4 O12 1.906 . S
Zn4 O22 1.953 . S
Zn5 O2 1.945 . S
Zn5 O7 1.932 . S
Zn5 O14 1.977 . S
Zn5 O15 1.910 . S
O6 Zn3 1.933 . S
O6 C17 1.226 1_655 S
O7 Zn5 1.932 . S
O7 C17 1.307 . S
O8 Zn1 1.919 . S
O8 C19 1.253 . S
O9 Zn3 1.941 . S
O9 C19 1.283 . S
O10 Zn3 1.965 . S
O10 C18 1.303 . S
O11 Zn4 1.938 1_655 S
O11 C18 1.247 . S
O12 Zn4 1.906 . S
O12 C20 1.304 . S
O13 Zn1 1.924 1_455 S
O13 C21 1.311 . S
O14 Zn5 1.977 . S
O14 C20 1.272 . S
O15 Zn5 1.910 . S
O15 C21 1.231 . S
C16 O0 1.225 1_455 S
C16 O22 1.298 . S
C17 O6 1.226 1_455 S
C17 O7 1.307 . S
C18 O10 1.303 . S
C18 O11 1.247 . S
C19 O8 1.253 . S
C19 O9 1.283 . S
C20 O12 1.304 . S
C20 O14 1.272 . S
C21 O13 1.311 . S
C21 O15 1.231 . S
O22 Zn4 1.953 . S
O22 C16 1.298 . S
O23 Zn24 1.953 . S
O23 C39 1.225 . S
Zn24 O23 1.953 . S
Zn24 O25 1.949 . S
Zn24 O31 1.919 . S
Zn24 O36 1.924 1_545 S
O25 Zn24 1.949 . S
O25 Zn26 1.923 . S
O25 Zn27 1.950 1_545 S
O25 Zn28 1.945 1_545 S
Zn26 O25 1.923 . S
Zn26 O29 1.933 . S
Zn26 O32 1.941 . S
Zn26 O33 1.965 . S
Zn27 O25 1.950 1_565 S
Zn27 O34 1.938 1_565 S
Zn27 O35 1.906 . S
Zn27 O45 1.953 . S
Zn28 O25 1.945 1_565 S
Zn28 O30 1.932 . S
Zn28 O37 1.977 . S
Zn28 O38 1.910 . S
O29 Zn26 1.933 . S
O29 C40 1.226 . S
O30 Zn28 1.932 . S
O30 C40 1.307 1_565 S
O31 Zn24 1.919 . S
O31 C42 1.253 . S
O32 Zn26 1.941 . S
O32 C42 1.283 . S
O33 Zn26 1.965 . S
O33 C41 1.303 . S
O34 Zn27 1.938 1_545 S
O34 C41 1.247 . S
O35 Zn27 1.906 . S
O35 C43 1.304 . S
O36 Zn24 1.924 1_565 S
O36 C44 1.311 . S
O37 Zn28 1.977 . S
O37 C43 1.272 . S
O38 Zn28 1.910 . S
O38 C44 1.231 . S
C39 O23 1.225 . S
C39 O45 1.298 1_545 S
C40 O29 1.226 . S
C40 O30 1.307 1_545 S
C41 O33 1.303 . S
C41 O34 1.247 . S
C42 O31 1.253 . S
C42 O32 1.283 . S
C43 O35 1.304 . S
C43 O37 1.272 . S
C44 O36 1.311 . S
C44 O38 1.231 . S
O45 Zn27 1.953 . S
O45 C39 1.298 1_565 S
O46 Zn47 1.953 . S
O46 C62 1.225 . S
Zn47 O46 1.953 . S
Zn47 O48 1.949 . S
Zn47 O54 1.919 . S
Zn47 O59 1.924 . S
O48 Zn47 1.949 . S
O48 Zn49 1.923 . S
O48 Zn50 1.950 . S
O48 Zn51 1.945 . S
Zn49 O48 1.923 . S
Zn49 O52 1.933 . S
Zn49 O55 1.941 . S
Zn49 O56 1.965 . S
Zn50 O48 1.950 . S
Zn50 O57 1.938 . S
Zn50 O58 1.906 . S
Zn50 O68 1.953 . S
Zn51 O48 1.945 . S
Zn51 O53 1.932 . S
Zn51 O60 1.977 . S
Zn51 O61 1.910 . S
O52 Zn49 1.933 . S
O52 C63 1.226 . S
O53 Zn51 1.932 . S
O53 C63 1.307 . S
O54 Zn47 1.919 . S
O54 C65 1.253 . S
O55 Zn49 1.941 . S
O55 C65 1.283 . S
O56 Zn49 1.965 . S
O56 C64 1.303 . S
O57 Zn50 1.938 . S
O57 C64 1.247 . S
O58 Zn50 1.906 . S
O58 C66 1.304 . S
O59 Zn47 1.924 . S
O59 C67 1.311 . S
O60 Zn51 1.977 . S
O60 C66 1.272 . S
O61 Zn51 1.910 . S
O61 C67 1.231 . S
C62 O46 1.225 . S
C62 O68 1.298 . S
C63 O52 1.226 . S
C63 O53 1.307 . S
C64 O56 1.303 . S
C64 O57 1.247 . S
C65 O54 1.253 . S
C65 O55 1.283 . S
C66 O58 1.304 . S
C66 O60 1.272 . S
C67 O59 1.311 . S
C67 O61 1.231 . S
O68 Zn50 1.953 . S
O68 C62 1.298 . S
O69 Cd70 2.300 . S
O69 C76 1.261 1_545 S
Cd70 O69 2.300 . S
Cd70 O78 2.381 . S
Cd70 O79 2.378 . S
O71 Cd72 2.385 . S
O71 C76 1.271 . S
Cd72 O71 2.385 . S
Cd72 O73 2.317 . S
O73 Cd72 2.317 . S
O73 C74 1.232 . S
C74 O73 1.232 . S
C74 O75 1.218 . S
O75 C74 1.218 . S
C76 O69 1.261 1_565 S
C76 O71 1.271 . S
C77 O78 1.258 . S
C77 O79 1.256 . S
O78 Cd70 2.381 . S
O78 C77 1.258 . S
O79 Cd70 2.378 . S
O79 C77 1.256 . S
O80 Cd81 2.300 . S
O80 C87 1.275 . S
Cd81 O80 2.300 . S
Cd81 O89 2.381 . S
Cd81 O90 2.378 . S
O82 Cd83 2.385 . S
O82 C87 1.255 . S
Cd83 O82 2.385 . S
Cd83 O84 2.317 . S
O84 Cd83 2.317 . S
O84 C85 1.232 . S
C85 O84 1.232 . S
C85 O86 1.218 . S
O86 C85 1.218 . S
C87 O80 1.275 . S
C87 O82 1.255 . S
C88 O89 1.258 . S
C88 O90 1.256 . S
O89 Cd81 2.381 . S
O89 C88 1.258 . S
O90 Cd81 2.378 . S
O90 C88 1.256 . S
O91 Cd92 2.300 . S
O91 C98 1.275 . S
Cd92 O91 2.300 . S
Cd92 O100 2.381 . S
Cd92 O101 2.378 . S
O93 Cd94 2.385 . S
O93 C98 1.255 1_655 S
Cd94 O93 2.385 . S
Cd94 O95 2.317 . S
O95 Cd94 2.317 . S
O95 C96 1.232 . S
C96 O95 1.232 . S
C96 O97 1.218 . S
O97 C96 1.218 . S
C98 O91 1.275 . S
C98 O93 1.255 1_455 S
C99 O100 1.258 . S
C99 O101 1.256 . S
O100 Cd92 2.381 . S
O100 C99 1.258 . S
O101 Cd92 2.378 . S
O101 C99 1.256 . S
O102 Cd103 2.300 . S
O102 C109 1.275 1_455 S
Cd103 O102 2.300 . S
Cd103 O111 2.381 . S
Cd103 O112 2.378 . S
O104 Cd105 2.385 . S
O104 C109 1.255 . S
Cd105 O104 2.385 . S
Cd105 O106 2.317 . S
O106 Cd105 2.317 . S
O106 C107 1.232 . S
C107 O106 1.232 . S
C107 O108 1.218 . S
O108 C107 1.218 . S
C109 O102 1.275 1_655 S
C109 O104 1.255 . S
C110 O111 1.258 . S
C110 O112 1.256 . S
O111 Cd103 2.381 . S
O111 C110 1.258 . S
O112 Cd103 2.378 . S
O112 C110 1.256 . S
O113 Cd114 2.300 . S
O113 C120 1.275 1_565 S
Cd114 O113 2.300 . S
Cd114 O122 2.381 . S
Cd114 O123 2.378 . S
O115 Cd116 2.385 . S
O115 C120 1.255 . S
Cd116 O115 2.385 . S
Cd116 O117 2.317 . S
O117 Cd116 2.317 . S
O117 C118 1.232 . S
C118 O117 1.232 . S
C118 O119 1.218 . S
O119 C118 1.218 . S
C120 O113 1.275 1_545 S
C120 O115 1.255 . S
C121 O122 1.258 . S
C121 O123 1.256 . S
O122 Cd114 2.381 . S
O122 C121 1.258 . S
O123 Cd114 2.378 . S
O123 C121 1.256 . S
O124 Cd125 2.300 . S
O124 C131 1.275 . S
Cd125 O124 2.300 . S
Cd125 O133 2.381 . S
Cd125 O134 2.378 . S
O126 Cd127 2.385 . S
O126 C131 1.255 . S
Cd127 O126 2.385 . S
Cd127 O128 2.317 . S
O128 Cd127 2.317 . S
O128 C129 1.232 . S
C129 O128 1.232 . S
C129 O130 1.218 . S
O130 C129 1.218 . S
C131 O124 1.275 . S
C131 O126 1.255 . S
C132 O133 1.258 . S
C132 O134 1.256 . S
O133 Cd125 2.381 . S
O133 C132 1.258 . S
O134 Cd125 2.378 . S
O134 C132 1.256 . S
C135 C136 1.170 . S
C135 C137 1.380 . S
C136 C135 1.170 . S
C137 C135 1.380 . S
C137 C138 1.170 . S
C138 C137 1.170 . S
C139 C140 1.170 . S
C139 C141 1.380 . S
C140 C139 1.170 . S
C141 C139 1.380 . S
C141 C142 1.170 . S
C142 C141 1.170 . S
C143 C144 1.170 . S
C143 C145 1.380 . S
C144 C143 1.170 . S
C145 C143 1.380 . S
C145 C146 1.170 . S
C146 C145 1.170 . S
C147 C148 1.170 . S
C147 C149 1.380 . S
C148 C147 1.170 . S
C149 C147 1.380 . S
C149 C150 1.170 . S
C150 C149 1.170 . S
C151 C152 1.170 . S
C151 C153 1.380 . S
C152 C151 1.170 . S
C153 C151 1.380 . S
C153 C154 1.170 . S
C154 C153 1.170 . S
C155 C156 1.170 . S
C155 C157 1.380 . S
C156 C155 1.170 . S
C157 C155 1.380 . S
C157 C158 1.170 . S
C158 C157 1.170 . S
C159 C160 1.170 . S
C159 C161 1.380 . S
C160 C159 1.170 . S
C161 C159 1.380 . S
C161 C162 1.170 . S
C162 C161 1.170 . S
C163 C164 1.170 . S
C163 C165 1.380 . S
C164 C163 1.170 . S
C165 C163 1.380 . S
C165 C166 1.170 . S
C166 C165 1.170 . S
C167 C168 1.170 . S
C167 C169 1.380 . S
C168 C167 1.170 . S
C169 C167 1.380 . S
C169 C170 1.170 . S
C170 C169 1.170 . S
C171 C172 1.170 . S
C171 C173 1.380 . S
C172 C171 1.170 . S
C173 C171 1.380 . S
C173 C174 1.170 . S
C174 C173 1.170 . S
C175 C176 1.170 . S
C175 C177 1.380 . S
C176 C175 1.170 . S
C177 C175 1.380 . S
C177 C178 1.170 . S
C178 C177 1.170 . S
C179 C180 1.170 . S
C179 C181 1.380 . S
C180 C179 1.170 . S
C181 C179 1.380 . S
C181 C182 1.170 . S
C182 C181 1.170 . S
C183 C184 1.170 . S
C183 C185 1.380 . S
C184 C183 1.170 . S
C185 C183 1.380 . S
C185 C186 1.170 1_454 S
C186 C185 1.170 1_656 S
C187 C188 1.170 1_565 S
C187 C189 1.380 . S
C188 C187 1.170 1_545 S
C189 C187 1.380 . S
C189 C190 1.170 . S
C190 C189 1.170 . S
C191 C192 1.170 . S
C191 C193 1.380 . S
C192 C191 1.170 . S
C193 C191 1.380 . S
C193 C194 1.170 . S
C194 C193 1.170 . S
C195 C196 1.170 . S
C195 C197 1.380 . S
C196 C195 1.170 . S
C197 C195 1.380 . S
C197 C198 1.170 . S
C198 C197 1.170 . S
C199 C200 1.170 . S
C199 C201 1.380 . S
C200 C199 1.170 . S
C201 C199 1.380 . S
C201 C202 1.170 1_556 S
C202 C201 1.170 1_554 S
C203 C204 1.170 1_655 S
C203 C205 1.380 . S
C204 C203 1.170 1_455 S
C205 C203 1.380 . S
C205 C206 1.170 . S
C206 C205 1.170 . S
C136 C20 1.443 . S
C138 C129 1.368 . S
C140 C41 1.505 . S
C142 C107 1.380 . S
C144 C64 1.263 . S
C146 C121 1.194 . S
C148 C19 1.189 . S
C150 C132 1.203 . S
C154 C110 1.213 . S
C152 C44 1.217 . S
C158 C118 1.383 . S
C156 C67 1.491 . S
C160 C43 1.416 . S
C162 C85 1.335 . S
C164 C66 1.433 . S
C166 C96 1.352 . S
C168 C21 1.500 . S
C170 C74 1.397 . S
C174 C88 1.203 . S
C172 C42 1.167 . S
C178 C99 1.240 . S
C176 C65 1.185 . S
C180 C18 1.233 . S
C182 C77 1.197 . S
C186 C98 1.440 1_655 S
C184 C17 1.503 . S
C188 C39 1.498 . S
C190 C76 1.436 . S
C192 C62 1.518 . S
C194 C87 1.435 . S
C198 C120 1.391 . S
C196 C40 1.486 . S
C202 C131 1.448 . S
C200 C63 1.504 . S
C204 C16 1.504 . S
C206 C109 1.452 . S
