# Generated by pormake.
# Topology pth, (4,4)-cn, num edge types: 1
# Building blocks:
#     Node 0, Type 0, BuildingBlock: KUFVIS_clean_sbu_0, # of connection points: 4
#     Node 1, Type 0, BuildingBlock: KUFVIS_clean_sbu_0, # of connection points: 4
#     Node 2, Type 0, BuildingBlock: KUFVIS_clean_sbu_0, # of connection points: 4
#     Node 3, Type 1, BuildingBlock: MUDLON_clean_sbu_0, # of connection points: 4
#     Node 4, Type 1, BuildingBlock: MUDLON_clean_sbu_0, # of connection points: 4
#     Node 5, Type 1, BuildingBlock: MUDLON_clean_sbu_0, # of connection points: 4
#     Edge 6, Type (0, 1), None
#     Edge 7, Type (0, 1), None
#     Edge 8, Type (0, 1), None
#     Edge 9, Type (0, 1), None
#     Edge 10, Type (0, 1), None
#     Edge 11, Type (0, 1), None
#     Edge 12, Type (0, 1), None
#     Edge 13, Type (0, 1), None
#     Edge 14, Type (0, 1), None
#     Edge 15, Type (0, 1), None
#     Edge 16, Type (0, 1), None
#     Edge 17, Type (0, 1), None
# Relax obj value: 0.023
# Max RMSD: 0.096
# Mean RMSD: 0.069
data_MOF--net-pth--node1-KUFVIS_clean_sbu_0--node2-MUDLON_clean_sbu_0--edge1-none
_symmetry_space_group_name_H-M    P1
_symmetry_Int_Tables_number       1
_symmetry_cell_setting            triclinic
loop_
_symmetry_equiv_pos_as_xyz
'x, y, z'
_cell_length_a     10.214015
_cell_length_b     10.674942
_cell_length_c     27.67353
_cell_angle_alpha  91.740099
_cell_angle_beta   92.372351
_cell_angle_gamma 126.23711
loop_
_atom_site_label
_atom_site_type_symbol
_atom_site_fract_x
_atom_site_fract_y
_atom_site_fract_z
_atom_type_partial_charge
Mn0 Mn 0.13144 0.11299 0.11537 0.0
Mn1 Mn 0.8844 0.20755 0.08075 0.0
C2 C 0.94879 0.97522 0.04859 0.0
C3 C 0.17067 0.97359 0.17082 0.0
C4 C 0.2174 0.3678 0.04326 0.0
O5 O 0.16757 0.26243 0.17106 0.0
O6 O 1.02067 0.33654 0.13986 0.0
C7 C 0.71133 0.04548 0.16665 0.0
N8 N 0.70612 0.06887 0.11861 0.0
C9 C 0.42601 0.84622 0.1074 0.0
C10 C 0.4296 0.81943 0.15624 0.0
C11 C 0.57297 0.91896 0.18612 0.0
C12 C 0.57056 0.96861 0.08948 0.0
H13 H 0.82114 0.11898 0.18986 0.0
C14 C 0.11642 0.34556 0.17289 0.0
O15 O 0.29489 0.09111 0.15117 0.0
O16 O 1.02983 0.93961 0.15808 0.0
N17 N 0.7316 0.09715 0.02617 0.0
C18 C 0.74987 0.14038 0.98007 0.0
C19 C 0.61462 0.06138 0.94601 0.0
C20 C 0.46233 0.93867 0.96012 0.0
C21 C 0.44407 0.90137 1.00848 0.0
C22 C 0.58239 0.98778 0.0408 0.0
H23 H 0.86875 0.23219 0.97023 0.0
O24 O 0.06537 0.96241 0.05789 0.0
O25 O 0.93648 0.05874 0.08104 0.0
O26 O 0.25768 0.29871 0.0713 0.0
O27 O 0.07646 0.34241 0.04123 0.0
C28 C 0.29382 0.78478 0.02627 0.0
C29 C 0.28578 0.75386 0.07552 0.0
H30 H 0.32236 0.72306 0.17107 0.0
H31 H 0.57673 0.89815 0.22402 0.0
H32 H 0.62624 0.09297 0.90889 0.0
H33 H 0.36037 0.87576 0.93369 0.0
H34 H 0.18464 0.71499 1.00241 0.0
H35 H 0.1713 0.65974 0.08853 0.0
Mn36 Mn 0.09325 0.12994 0.4301 0.0
Mn37 Mn 0.35212 0.48701 0.48914 0.0
C38 C 0.24219 0.15528 0.49957 0.0
C39 C 0.04226 0.94778 0.36853 0.0
C40 C 0.98644 0.28443 0.49796 0.0
O41 O 0.11362 0.27827 0.38146 0.0
O42 O 0.30005 0.51041 0.42118 0.0
C43 C 0.62326 0.56251 0.43067 0.0
N44 N 0.56568 0.55496 0.47482 0.0
C45 C 0.81611 0.62764 0.51589 0.0
C46 C 0.87903 0.63881 0.47087 0.0
C47 C 0.7809 0.60312 0.42813 0.0
C48 C 0.65555 0.5799 0.51611 0.0
H49 H 0.54795 0.53405 0.39768 0.0
C50 C 0.2069 0.42659 0.38381 0.0
O51 O 0.92417 0.94584 0.38519 0.0
O52 O 0.18838 0.05677 0.38656 0.0
N53 N 0.42198 0.49624 0.55526 0.0
C54 C 0.34508 0.48612 0.59571 0.0
C55 C 0.42793 0.52281 0.64163 0.0
C56 C 0.58984 0.57297 0.64565 0.0
C57 C 0.66872 0.58861 0.6036 0.0
C58 C 0.581 0.55316 0.55877 0.0
H59 H 0.22165 0.45076 0.59298 0.0
O60 O 0.11493 1.01941 0.48331 0.0
O61 O 0.27988 0.27198 0.47432 0.0
O62 O 0.95606 0.17045 0.47023 0.0
O63 O 0.12937 0.41261 0.50695 0.0
C64 C 0.83214 0.64155 0.6044 0.0
C65 C 0.90515 0.659 0.56052 0.0
H66 H 1.00129 0.67191 0.46869 0.0
H67 H 0.82596 0.60522 0.39333 0.0
H68 H 0.36773 0.51337 0.67395 0.0
H69 H 0.65292 0.60078 0.68118 0.0
H70 H 0.90257 0.66867 0.63853 0.0
H71 H 1.02997 0.69722 0.56151 0.0
Mn72 Mn 0.12936 0.14137 0.75389 0.0
Mn73 Mn 0.9255 0.28679 0.78173 0.0
C74 C 0.23445 0.3223 0.81906 0.0
C75 C 0.3141 0.14739 0.70479 0.0
C76 C 0.83281 0.98406 0.81871 0.0
O77 O 0.9776 0.07793 0.69363 0.0
O78 O 0.8305 0.15441 0.71962 0.0
C79 C 0.08254 0.49266 0.70153 0.0
N80 N 0.03624 0.47348 0.74783 0.0
C81 C 0.20449 0.75046 0.76636 0.0
C82 C 0.2615 0.77188 0.72018 0.0
C83 C 0.196 0.64338 0.68689 0.0
C84 C 0.09462 0.59775 0.77921 0.0
H85 H 0.04032 0.394 0.67671 0.0
C86 C 0.85893 0.08537 0.68808 0.0
O87 O 0.19906 1.02058 0.72331 0.0
O88 O 0.32289 0.27107 0.71495 0.0
N89 N 0.9885 0.4211 0.83864 0.0
C90 C 0.9441 0.38078 0.88427 0.0
C91 C 0.96863 0.49326 0.91906 0.0
C92 C 0.04507 0.64721 0.90685 0.0
C93 C 0.09918 0.68794 0.8605 0.0
C94 C 0.05736 0.56822 0.82638 0.0
H95 H 0.88791 0.26281 0.89283 0.0
O96 O 0.27641 0.22971 0.81407 0.0
O97 O 0.13213 0.30723 0.78481 0.0
O98 O 0.93481 0.98054 0.79375 0.0
O99 O 0.8182 0.0957 0.81864 0.0
C100 C 0.19754 0.84271 0.84719 0.0
C101 C 0.25903 0.87425 0.80109 0.0
H102 H 0.36005 0.88613 0.71092 0.0
H103 H 0.23811 0.66023 0.65079 0.0
H104 H 0.92927 0.46323 0.95521 0.0
H105 H 0.06465 0.73406 0.93353 0.0
H106 H 0.23441 0.93847 0.87296 0.0
H107 H 0.3473 0.99395 0.79278 0.0
Mg108 Mg 0.2123 0.71831 0.27758 0.0
C109 C 0.19105 0.50383 0.34333 0.0
O110 O 0.04912 0.43061 0.31869 0.0
C111 C 0.17702 0.87463 0.20533 0.0
O112 O 0.03763 0.74418 0.21379 0.0
C113 C 0.1696 0.45826 0.21466 0.0
O114 O 0.30676 0.51138 0.23978 0.0
O115 O 0.09309 0.51646 0.2239 0.0
O116 O 0.30512 0.64259 0.33345 0.0
O117 O 0.1287 0.81592 0.3274 0.0
C118 C 1.01595 0.83235 0.33114 0.0
O119 O 0.88876 0.76066 0.29967 0.0
O120 O 0.30537 0.91047 0.22941 0.0
Mg121 Mg 0.62839 0.19939 0.59656 0.0
C122 C 0.34168 0.16964 0.5417 0.0
O123 O 0.31823 0.20649 0.5842 0.0
C124 C 0.76918 0.03941 0.63996 0.0
O125 O 0.85322 0.06999 0.60182 0.0
C126 C 0.41578 0.14502 0.66926 0.0
O127 O 0.35458 1.01436 0.64329 0.0
O128 O 0.54858 0.26844 0.65734 0.0
O129 O 0.44427 0.13901 0.53762 0.0
O130 O 0.86195 0.33122 0.56191 0.0
C131 C 0.84618 0.25716 0.52233 0.0
O132 O 0.70068 0.13202 0.50781 0.0
O133 O 0.63903 0.03031 0.63598 0.0
Mg134 Mg 0.53985 0.67297 0.93551 0.0
C135 C 0.32753 0.45411 0.85592 0.0
O136 O 0.32206 0.57297 0.85343 0.0
C137 C 0.85107 0.90961 1.00187 0.0
O138 O 0.90004 0.9944 0.96424 0.0
C139 C 0.34047 0.47163 1.00921 0.0
O140 O 0.46561 0.4672 1.00592 0.0
O141 O 0.32865 0.55849 0.98121 0.0
O142 O 0.43104 0.46502 0.8868 0.0
O143 O 0.64433 0.85699 0.88188 0.0
C144 C 0.73539 0.85605 0.85152 0.0
O145 O 0.75558 0.7455 0.85266 0.0
O146 O 0.72803 0.76722 0.99655 0.0
loop_
_geom_bond_atom_site_label_1
_geom_bond_atom_site_label_2
_geom_bond_distance
_geom_bond_site_symmetry_2
_ccdc_geom_bond_type
Mn0 O5 2.095 . S
Mn0 O15 2.162 1_545 S
Mn0 O16 2.297 1_445 S
Mn0 O24 2.385 1_445 S
Mn0 O25 2.209 1_455 S
Mn0 O26 2.094 . S
Mn1 O6 2.121 . S
Mn1 N8 2.257 . S
Mn1 N17 2.282 1_554 S
Mn1 O25 2.215 . S
Mn1 O27 2.117 1_655 S
C2 O24 1.234 . S
C2 O25 1.283 1_565 S
C3 O15 1.281 . S
C3 O16 1.236 1_455 S
C4 O26 1.240 . S
C4 O27 1.264 . S
O5 Mn0 2.095 . S
O5 C14 1.250 . S
O6 Mn1 2.121 . S
O6 C14 1.258 1_655 S
C7 N8 1.326 . S
C7 C11 1.460 . S
C7 H13 0.929 . S
N8 Mn1 2.257 . S
N8 C7 1.326 . S
N8 C12 1.362 1_554 S
C9 C10 1.258 . S
C9 C12 1.431 . S
C9 C29 1.449 . S
C10 C9 1.258 . S
C10 C11 1.477 1_556 S
C10 H30 0.931 . S
C11 C7 1.460 . S
C11 C10 1.477 1_554 S
C11 H31 0.930 . S
C12 N8 1.362 1_556 S
C12 C9 1.431 . S
C12 C22 1.476 . S
H13 C7 0.929 . S
C14 O5 1.250 . S
C14 O6 1.258 1_455 S
O15 Mn0 2.162 1_565 S
O15 C3 1.281 . S
O16 Mn0 2.297 1_665 S
O16 C3 1.236 1_655 S
N17 Mn1 2.282 1_556 S
N17 C18 1.328 . S
N17 C22 1.318 . S
C18 N17 1.328 . S
C18 C19 1.457 . S
C18 H23 0.929 1_655 S
C19 C18 1.457 . S
C19 C20 1.291 . S
C19 H32 0.931 . S
C20 C19 1.291 . S
C20 C21 1.373 . S
C20 H33 0.929 . S
C21 C20 1.373 . S
C21 C22 1.396 . S
C21 C28 1.403 . S
C22 C12 1.476 . S
C22 N17 1.318 . S
C22 C21 1.396 . S
H23 C18 0.929 1_455 S
O24 Mn0 2.385 1_665 S
O24 C2 1.234 . S
O25 Mn0 2.209 1_655 S
O25 Mn1 2.215 . S
O25 C2 1.283 1_545 S
O26 Mn0 2.094 . S
O26 C4 1.240 . S
O27 Mn1 2.117 1_455 S
O27 C4 1.264 . S
C28 C21 1.403 . S
C28 C29 1.399 . S
C28 H34 0.929 1_545 S
C29 C9 1.449 . S
C29 C28 1.399 . S
C29 H35 0.930 . S
H30 C10 0.931 . S
H31 C11 0.930 . S
H32 C19 0.931 . S
H33 C20 0.929 . S
H34 C28 0.929 1_565 S
H35 C29 0.930 . S
Mn36 O41 2.095 1_455 S
Mn36 O51 2.162 1_445 S
Mn36 O52 2.297 1_545 S
Mn36 O60 2.385 1_545 S
Mn36 O61 2.209 . S
Mn36 O62 2.094 1_455 S
Mn37 O42 2.121 . S
Mn37 N44 2.257 . S
Mn37 N53 2.282 . S
Mn37 O61 2.215 . S
Mn37 O63 2.117 1_455 S
C38 O60 1.234 1_545 S
C38 O61 1.283 . S
C39 O51 1.281 1_455 S
C39 O52 1.236 . S
C40 O62 1.240 . S
C40 O63 1.264 . S
O41 Mn36 2.095 1_655 S
O41 C50 1.250 1_655 S
O42 Mn37 2.121 . S
O42 C50 1.258 . S
C43 N44 1.326 . S
C43 C47 1.460 . S
C43 H49 0.929 . S
N44 Mn37 2.257 . S
N44 C43 1.326 . S
N44 C48 1.362 . S
C45 C46 1.258 . S
C45 C48 1.431 . S
C45 C65 1.449 . S
C46 C45 1.258 . S
C46 C47 1.477 . S
C46 H66 0.931 . S
C47 C43 1.460 . S
C47 C46 1.477 . S
C47 H67 0.930 . S
C48 N44 1.362 . S
C48 C45 1.431 . S
C48 C58 1.476 . S
H49 C43 0.929 . S
C50 O41 1.250 1_455 S
C50 O42 1.258 . S
O51 Mn36 2.162 1_665 S
O51 C39 1.281 1_655 S
O52 Mn36 2.297 1_565 S
O52 C39 1.236 . S
N53 Mn37 2.282 . S
N53 C54 1.328 . S
N53 C58 1.318 . S
C54 N53 1.328 . S
C54 C55 1.457 . S
C54 H59 0.929 . S
C55 C54 1.457 . S
C55 C56 1.291 . S
C55 H68 0.931 . S
C56 C55 1.291 . S
C56 C57 1.373 . S
C56 H69 0.929 . S
C57 C56 1.373 . S
C57 C58 1.396 . S
C57 C64 1.403 . S
C58 C48 1.476 . S
C58 N53 1.318 . S
C58 C57 1.396 . S
H59 C54 0.929 . S
O60 Mn36 2.385 1_565 S
O60 C38 1.234 1_565 S
O61 Mn36 2.209 . S
O61 Mn37 2.215 . S
O61 C38 1.283 . S
O62 Mn36 2.094 1_655 S
O62 C40 1.240 . S
O63 Mn37 2.117 1_655 S
O63 C40 1.264 . S
C64 C57 1.403 . S
C64 C65 1.399 . S
C64 H70 0.929 . S
C65 C45 1.449 . S
C65 C64 1.399 . S
C65 H71 0.930 . S
H66 C46 0.931 . S
H67 C47 0.930 . S
H68 C55 0.931 . S
H69 C56 0.929 . S
H70 C64 0.929 . S
H71 C65 0.930 . S
Mn72 O77 2.095 1_455 S
Mn72 O87 2.162 1_545 S
Mn72 O88 2.297 . S
Mn72 O96 2.385 . S
Mn72 O97 2.209 . S
Mn72 O98 2.094 1_445 S
Mn73 O78 2.121 . S
Mn73 N80 2.257 . S
Mn73 N89 2.282 1_655 S
Mn73 O97 2.215 1_655 S
Mn73 O99 2.117 . S
C74 O96 1.234 . S
C74 O97 1.283 . S
C75 O87 1.281 1_545 S
C75 O88 1.236 . S
C76 O98 1.240 . S
C76 O99 1.264 1_565 S
O77 Mn72 2.095 1_655 S
O77 C86 1.250 . S
O78 Mn73 2.121 . S
O78 C86 1.258 . S
C79 N80 1.326 . S
C79 C83 1.460 1_655 S
C79 H85 0.929 . S
N80 Mn73 2.257 . S
N80 C79 1.326 . S
N80 C84 1.362 1_655 S
C81 C82 1.258 . S
C81 C84 1.431 . S
C81 C101 1.449 . S
C82 C81 1.258 . S
C82 C83 1.477 . S
C82 H102 0.931 . S
C83 C79 1.460 1_455 S
C83 C82 1.477 . S
C83 H103 0.934 . S
C84 N80 1.362 1_455 S
C84 C81 1.431 . S
C84 C94 1.476 . S
H85 C79 0.929 . S
C86 O77 1.250 . S
C86 O78 1.258 . S
O87 Mn72 2.162 1_565 S
O87 C75 1.281 1_565 S
O88 Mn72 2.297 . S
O88 C75 1.236 . S
N89 Mn73 2.282 1_455 S
N89 C90 1.328 . S
N89 C94 1.318 . S
C90 N89 1.328 . S
C90 C91 1.457 . S
C90 H95 0.929 . S
C91 C90 1.457 . S
C91 C92 1.291 . S
C91 H104 0.931 . S
C92 C91 1.291 . S
C92 C93 1.373 . S
C92 H105 0.929 1_556 S
C93 C92 1.373 . S
C93 C94 1.396 . S
C93 C100 1.403 . S
C94 C84 1.476 . S
C94 N89 1.318 . S
C94 C93 1.396 . S
H95 C90 0.929 . S
O96 Mn72 2.385 . S
O96 C74 1.234 . S
O97 Mn72 2.209 . S
O97 Mn73 2.215 1_455 S
O97 C74 1.283 . S
O98 Mn72 2.094 1_665 S
O98 C76 1.240 . S
O99 Mn73 2.117 . S
O99 C76 1.264 1_545 S
C100 C93 1.403 . S
C100 C101 1.399 . S
C100 H106 0.929 . S
C101 C81 1.449 . S
C101 C100 1.399 . S
C101 H107 0.930 . S
H102 C82 0.931 . S
H103 C83 0.934 . S
H104 C91 0.931 . S
H105 C92 0.929 1_554 S
H106 C100 0.929 . S
H107 C101 0.930 . S
Mg108 O115 2.141 . S
Mg108 O116 2.048 . S
Mg108 O117 2.048 . S
Mg108 O120 2.141 . S
C109 O110 1.313 1_455 S
C109 O116 1.195 . S
O110 C109 1.313 1_655 S
C111 O112 1.245 1_455 S
C111 O120 1.289 . S
O112 C111 1.245 1_655 S
C113 O114 1.245 1_455 S
C113 O115 1.289 . S
O114 C113 1.245 1_655 S
O115 Mg108 2.141 . S
O115 C113 1.289 . S
O116 Mg108 2.048 . S
O116 C109 1.195 . S
O117 Mg108 2.048 . S
O117 C118 1.195 . S
C118 O117 1.195 . S
C118 O119 1.313 1_455 S
O119 C118 1.313 1_655 S
O120 Mg108 2.141 . S
O120 C111 1.289 . S
Mg121 O128 2.141 . S
Mg121 O129 2.048 . S
Mg121 O130 2.048 . S
Mg121 O133 2.141 . S
C122 O123 1.313 1_545 S
C122 O129 1.195 . S
O123 C122 1.313 1_565 S
C124 O125 1.245 1_545 S
C124 O133 1.289 . S
O125 C124 1.245 1_565 S
C126 O127 1.245 1_545 S
C126 O128 1.289 . S
O127 C126 1.245 1_565 S
O128 Mg121 2.141 . S
O128 C126 1.289 . S
O129 Mg121 2.048 . S
O129 C122 1.195 . S
O130 Mg121 2.048 . S
O130 C131 1.195 . S
C131 O130 1.195 . S
C131 O132 1.313 1_545 S
O132 C131 1.313 1_565 S
O133 Mg121 2.141 . S
O133 C124 1.289 . S
Mg134 O141 2.141 . S
Mg134 O142 2.048 . S
Mg134 O143 2.048 . S
Mg134 O146 2.141 . S
C135 O136 1.313 . S
C135 O142 1.195 . S
O136 C135 1.313 . S
C137 O138 1.245 . S
C137 O146 1.289 . S
O138 C137 1.245 . S
C139 O140 1.245 . S
C139 O141 1.289 . S
O140 C139 1.245 . S
O141 Mg134 2.141 . S
O141 C139 1.289 . S
O142 Mg134 2.048 . S
O142 C135 1.195 . S
O143 Mg134 2.048 . S
O143 C144 1.195 . S
C144 O143 1.195 . S
C144 O145 1.313 . S
O145 C144 1.313 . S
O146 Mg134 2.141 . S
O146 C137 1.289 . S
C113 C14 1.445 . S
C40 C131 1.487 . S
C76 C144 1.474 . S
C3 C111 1.420 . S
C122 C38 1.492 . S
C74 C135 1.467 . S
C124 C86 1.400 . S
C2 C137 1.359 1_554 S
C118 C39 1.464 . S
C126 C75 1.384 . S
C139 C4 1.363 1_556 S
C50 C109 1.538 . S
