# Generated by pormake.
# Topology tsx, (6,3)-cn, num edge types: 1
# Building blocks:
#     Node 0, Type 0, BuildingBlock: JUFBIX_clean_sbu_0, # of connection points: 6
#     Node 1, Type 0, BuildingBlock: JUFBIX_clean_sbu_0, # of connection points: 6
#     Node 2, Type 1, BuildingBlock: OLANEW_clean_sbu_2, # of connection points: 3
#     Node 3, Type 1, BuildingBlock: OLANEW_clean_sbu_2, # of connection points: 3
#     Node 4, Type 1, BuildingBlock: OLANEW_clean_sbu_2, # of connection points: 3
#     Node 5, Type 1, BuildingBlock: OLANEW_clean_sbu_2, # of connection points: 3
#     Edge 6, Type (0, 1), None
#     Edge 7, Type (0, 1), None
#     Edge 8, Type (0, 1), None
#     Edge 9, Type (0, 1), None
#     Edge 10, Type (0, 1), None
#     Edge 11, Type (0, 1), None
#     Edge 12, Type (0, 1), None
#     Edge 13, Type (0, 1), None
#     Edge 14, Type (0, 1), None
#     Edge 15, Type (0, 1), None
#     Edge 16, Type (0, 1), None
#     Edge 17, Type (0, 1), None
# Relax obj value: 0.058
# Max RMSD: 0.113
# Mean RMSD: 0.085
data_MOF--net-tsx--node1-JUFBIX_clean_sbu_0--node2-OLANEW_clean_sbu_2--edge1-none
_symmetry_space_group_name_H-M    P1
_symmetry_Int_Tables_number       1
_symmetry_cell_setting            triclinic
loop_
_symmetry_equiv_pos_as_xyz
'x, y, z'
_cell_length_a     12.913881
_cell_length_b     14.75489
_cell_length_c     13.33777
_cell_angle_alpha  98.435017
_cell_angle_beta   89.817775
_cell_angle_gamma 111.03329
loop_
_atom_site_label
_atom_site_type_symbol
_atom_site_fract_x
_atom_site_fract_y
_atom_site_fract_z
_atom_type_partial_charge
Co0 Co 0.01269 0.93971 1.03845 0.0
C1 C -0.04037 0.02555 0.8834 0.0
Co2 Co 0.93956 0.05145 0.09124 0.0
C3 C 0.16208 0.8317 1.01219 0.0
C4 C 0.01866 0.77159 0.90898 0.0
N5 N 0.06738 0.844 0.98731 0.0
N6 N 0.17391 0.75458 0.95186 0.0
C7 C 0.0841 0.71669 0.88673 0.0
H8 H 0.22119 0.87863 0.07265 0.0
H9 H 0.94072 0.75999 0.86979 0.0
C10 C -0.00257 0.96504 0.24528 0.0
N11 N 0.88059 0.14688 0.136 0.0
C12 C 0.78999 0.15446 0.09341 0.0
C13 C 0.92342 0.22895 0.20539 0.0
N14 N 0.77589 0.23878 0.13147 0.0
C15 C 0.8593 0.28606 0.2024 0.0
C16 C 0.78163 0.86574 1.04929 0.0
O17 O 0.02791 0.91693 0.17187 0.0
O18 O -0.04435 0.02799 0.22783 0.0
O19 O 0.79573 0.95513 0.07826 0.0
O20 O 0.86498 0.84206 1.02586 0.0
O21 O 0.92644 0.07374 0.95477 0.0
H22 H -0.00135 0.24783 0.25223 0.0
H23 H 0.73868 0.10141 1.03159 0.0
O24 O -0.00139 0.96261 0.9038 0.0
O25 O 0.16007 0.03907 0.05504 0.0
O26 O 0.08244 0.14735 0.10482 0.0
C27 C 0.16886 0.12741 0.08674 0.0
H28 H 0.06698 0.65379 0.82745 0.0
H29 H 0.87401 0.35728 0.24739 0.0
Co30 Co 0.51268 0.43971 0.53845 0.0
C31 C 0.45963 0.52555 0.3834 0.0
Co32 Co 0.43956 0.55145 0.59124 0.0
C33 C 0.66207 0.33169 0.51218 0.0
C34 C 0.51865 0.27158 0.40897 0.0
N35 N 0.56738 0.34399 0.48731 0.0
N36 N 0.6739 0.25458 0.45186 0.0
C37 C 0.58409 0.21668 0.38673 0.0
H38 H 0.72118 0.37862 0.57264 0.0
H39 H 0.44071 0.25999 0.36979 0.0
C40 C 0.49742 0.46504 0.74528 0.0
N41 N 0.38059 0.64688 0.636 0.0
C42 C 0.28999 0.65447 0.59341 0.0
C43 C 0.42342 0.72895 0.7054 0.0
N44 N 0.27589 0.73878 0.63148 0.0
C45 C 0.35931 0.78606 0.7024 0.0
C46 C 0.28162 0.36574 0.54929 0.0
O47 O 0.5279 0.41692 0.67186 0.0
O48 O 0.45565 0.52798 0.72782 0.0
O49 O 0.29572 0.45513 0.57826 0.0
O50 O 0.36497 0.34205 0.52585 0.0
O51 O 0.42643 0.57374 0.45477 0.0
H52 H 0.49865 0.74782 0.75223 0.0
H53 H 0.23868 0.60142 0.53159 0.0
O54 O 0.4986 0.46261 0.4038 0.0
O55 O 0.66007 0.53906 0.55504 0.0
O56 O 0.58244 0.64735 0.60482 0.0
C57 C 0.66886 0.6274 0.58674 0.0
H58 H 0.56696 0.15379 0.32745 0.0
H59 H 0.37401 0.85728 0.74739 0.0
O60 O 0.05132 0.88278 0.36422 0.0
Cd61 Cd 0.03385 0.83434 0.53319 0.0
O62 O -0.03411 -0.01812 0.42233 0.0
Cd63 Cd 0.87804 0.07899 0.40377 0.0
O64 O 0.75487 0.14497 0.39414 0.0
C65 C 0.75734 0.21986 0.45606 0.0
O66 O 0.83914 0.26113 0.5256 0.0
C67 C 0.00699 0.94401 0.34862 0.0
C68 C 0.19703 0.77084 0.59987 0.0
O69 O 0.11812 0.71469 0.53594 0.0
O70 O 0.20034 0.85823 0.63168 0.0
O71 O -0.04673 0.12703 0.76251 0.0
Cd72 Cd -0.03407 0.15263 0.58493 0.0
O73 O -0.02177 -0.00983 0.70543 0.0
Cd74 Cd -0.02199 0.84258 0.71107 0.0
O75 O 0.85705 0.69699 0.65163 0.0
C76 C 0.77623 0.70799 0.60776 0.0
O77 O 0.78099 0.79764 0.60271 0.0
C78 C -0.03736 0.04789 0.77952 0.0
C79 C 0.17137 0.29071 0.55395 0.0
O80 O 0.08924 0.31637 0.58056 0.0
O81 O 0.15667 0.19906 0.54001 0.0
O82 O 0.5513 0.38277 0.86421 0.0
Cd83 Cd 0.53384 0.33433 1.03318 0.0
O84 O 0.46589 0.48188 0.92233 0.0
Cd85 Cd 0.37805 0.57899 0.90377 0.0
O86 O 0.25488 0.64498 0.89414 0.0
C87 C 0.25735 0.71987 0.95607 0.0
O88 O 0.33915 0.76113 1.02561 0.0
C89 C 0.50699 0.44401 0.84862 0.0
C90 C 0.69702 0.27083 0.09986 0.0
O91 O 0.61811 0.21468 1.03594 0.0
O92 O 0.70033 0.35822 0.13167 0.0
O93 O 0.45327 0.62703 0.26251 0.0
Cd94 Cd 0.46594 0.65263 0.08493 0.0
O95 O 0.47823 0.49017 0.20543 0.0
Cd96 Cd 0.47801 0.34259 0.21107 0.0
O97 O 0.35706 0.197 0.15162 0.0
C98 C 0.27624 0.208 0.10776 0.0
O99 O 0.28099 0.29765 0.10272 0.0
C100 C 0.46264 0.54789 0.27952 0.0
C101 C 0.67138 0.79071 0.05395 0.0
O102 O 0.58925 0.81637 0.08056 0.0
O103 O 0.65667 0.69906 1.04001 0.0
loop_
_geom_bond_atom_site_label_1
_geom_bond_atom_site_label_2
_geom_bond_distance
_geom_bond_site_symmetry_2
_ccdc_geom_bond_type
Co0 N5 2.057 1_554 S
Co0 O17 2.021 . S
Co0 O20 2.062 1_455 S
Co0 O24 2.117 1_554 S
Co0 O25 2.020 1_565 S
C1 O21 1.254 1_455 S
C1 O24 1.263 1_545 S
Co2 N11 2.057 . S
Co2 O18 2.117 . S
Co2 O19 2.020 1_544 S
Co2 O21 2.021 1_554 S
Co2 O26 2.062 1_655 S
C3 N5 1.316 1_554 S
C3 N6 1.347 1_554 S
C3 H8 0.931 . S
C4 N5 1.375 . S
C4 C7 1.350 . S
C4 H9 0.930 . S
N5 Co0 2.057 1_556 S
N5 C3 1.316 1_556 S
N5 C4 1.375 . S
N6 C3 1.347 1_556 S
N6 C7 1.373 . S
C7 C4 1.350 . S
C7 N6 1.373 . S
C7 H28 0.931 . S
H8 C3 0.931 . S
H9 C4 0.930 . S
C10 O17 1.259 1_545 S
C10 O18 1.258 1_455 S
N11 Co2 2.057 . S
N11 C12 1.316 1_554 S
N11 C13 1.375 . S
C12 N11 1.316 1_556 S
C12 N14 1.347 1_556 S
C12 H23 0.931 . S
C13 N11 1.375 . S
C13 C15 1.350 . S
C13 H22 0.930 . S
N14 C12 1.347 1_554 S
N14 C15 1.373 . S
C15 C13 1.350 . S
C15 N14 1.373 . S
C15 H29 0.931 . S
C16 O19 1.255 1_554 S
C16 O20 1.255 . S
O17 Co0 2.021 . S
O17 C10 1.259 1_565 S
O18 Co2 2.117 . S
O18 C10 1.258 1_655 S
O19 Co2 2.020 1_566 S
O19 C16 1.255 1_556 S
O20 Co0 2.062 1_655 S
O20 C16 1.255 . S
O21 C1 1.254 1_655 S
O21 Co2 2.021 1_556 S
H22 C13 0.930 . S
H23 C12 0.931 . S
O24 Co0 2.117 1_556 S
O24 C1 1.263 1_565 S
O25 Co0 2.020 1_545 S
O25 C27 1.256 . S
O26 Co2 2.062 1_455 S
O26 C27 1.255 . S
C27 O25 1.256 . S
C27 O26 1.255 . S
H28 C7 0.931 . S
H29 C15 0.931 . S
Co30 N35 2.057 . S
Co30 O47 2.021 . S
Co30 O50 2.062 . S
Co30 O54 2.117 . S
Co30 O55 2.020 . S
C31 O51 1.259 . S
C31 O54 1.258 . S
Co32 N41 2.057 . S
Co32 O48 2.117 . S
Co32 O49 2.020 . S
Co32 O51 2.021 . S
Co32 O56 2.062 . S
C33 N35 1.316 . S
C33 N36 1.347 . S
C33 H38 0.931 . S
C34 N35 1.375 . S
C34 C37 1.350 . S
C34 H39 0.930 . S
N35 Co30 2.057 . S
N35 C33 1.316 . S
N35 C34 1.375 . S
N36 C33 1.347 . S
N36 C37 1.373 . S
C37 C34 1.350 . S
C37 N36 1.373 . S
C37 H58 0.931 . S
H38 C33 0.931 . S
H39 C34 0.930 . S
C40 O47 1.259 . S
C40 O48 1.258 . S
N41 Co32 2.057 . S
N41 C42 1.316 . S
N41 C43 1.375 . S
C42 N41 1.316 . S
C42 N44 1.347 . S
C42 H53 0.931 . S
C43 N41 1.375 . S
C43 C45 1.350 . S
C43 H52 0.930 . S
N44 C42 1.347 . S
N44 C45 1.373 . S
C45 C43 1.350 . S
C45 N44 1.373 . S
C45 H59 0.931 . S
C46 O49 1.256 . S
C46 O50 1.255 . S
O47 Co30 2.021 . S
O47 C40 1.259 . S
O48 Co32 2.117 . S
O48 C40 1.258 . S
O49 Co32 2.020 . S
O49 C46 1.256 . S
O50 Co30 2.062 . S
O50 C46 1.255 . S
O51 C31 1.259 . S
O51 Co32 2.021 . S
H52 C43 0.930 . S
H53 C42 0.931 . S
O54 Co30 2.117 . S
O54 C31 1.258 . S
O55 Co30 2.020 . S
O55 C57 1.256 . S
O56 Co32 2.062 . S
O56 C57 1.255 . S
C57 O55 1.256 . S
C57 O56 1.255 . S
H58 C37 0.931 . S
H59 C45 0.931 . S
O60 Cd61 2.300 1_565 S
O60 C67 1.275 1_565 S
Cd61 O60 2.300 1_545 S
Cd61 O69 2.381 1_545 S
Cd61 O70 2.378 1_545 S
O62 Cd63 2.385 . S
O62 C67 1.255 . S
Cd63 O62 2.385 . S
Cd63 O64 2.317 1_455 S
O64 Cd63 2.317 1_655 S
O64 C65 1.232 . S
C65 O64 1.232 . S
C65 O66 1.218 . S
O66 C65 1.218 . S
C67 O60 1.275 1_545 S
C67 O62 1.255 . S
C68 O69 1.258 . S
C68 O70 1.256 . S
O69 Cd61 2.381 1_565 S
O69 C68 1.258 . S
O70 Cd61 2.378 1_565 S
O70 C68 1.256 . S
O71 Cd72 2.300 . S
O71 C78 1.275 1_545 S
Cd72 O71 2.300 . S
Cd72 O80 2.381 . S
Cd72 O81 2.378 . S
O73 Cd74 2.385 . S
O73 C78 1.255 . S
Cd74 O73 2.385 . S
Cd74 O75 2.317 1_455 S
O75 Cd74 2.317 1_655 S
O75 C76 1.232 . S
C76 O75 1.232 . S
C76 O77 1.218 . S
O77 C76 1.218 . S
C78 O71 1.275 1_565 S
C78 O73 1.255 . S
C79 O80 1.258 . S
C79 O81 1.256 . S
O80 Cd72 2.381 . S
O80 C79 1.258 . S
O81 Cd72 2.378 . S
O81 C79 1.256 . S
O82 Cd83 2.300 . S
O82 C89 1.275 . S
Cd83 O82 2.300 . S
Cd83 O91 2.381 . S
Cd83 O92 2.378 1_556 S
O84 Cd85 2.385 . S
O84 C89 1.255 . S
Cd85 O84 2.385 . S
Cd85 O86 2.317 1_556 S
O86 Cd85 2.317 1_554 S
O86 C87 1.232 1_554 S
C87 O86 1.232 1_556 S
C87 O88 1.218 . S
O88 C87 1.218 . S
C89 O82 1.275 . S
C89 O84 1.255 . S
C90 O91 1.258 1_554 S
C90 O92 1.256 . S
O91 Cd83 2.381 . S
O91 C90 1.258 1_556 S
O92 Cd83 2.378 1_554 S
O92 C90 1.256 . S
O93 Cd94 2.300 . S
O93 C100 1.275 . S
Cd94 O93 2.300 . S
Cd94 O102 2.381 . S
Cd94 O103 2.378 1_554 S
O95 Cd96 2.385 . S
O95 C100 1.255 . S
Cd96 O95 2.385 . S
Cd96 O97 2.317 1_554 S
O97 Cd96 2.317 1_556 S
O97 C98 1.232 1_556 S
C98 O97 1.232 1_554 S
C98 O99 1.218 . S
O99 C98 1.218 . S
C100 O93 1.275 . S
C100 O95 1.255 . S
C101 O102 1.258 1_556 S
C101 O103 1.256 . S
O102 Cd94 2.381 . S
O102 C101 1.258 1_554 S
O103 Cd94 2.378 1_556 S
O103 C101 1.256 . S
C98 C27 1.299 . S
N6 C87 1.124 . S
C16 C101 1.533 1_554 S
N14 C90 1.489 . S
C57 C76 1.299 . S
N36 C65 1.124 . S
C79 C46 1.533 . S
C68 N44 1.489 . S
C10 C67 1.307 . S
C1 C78 1.511 1_545 S
C89 C40 1.307 . S
C31 C100 1.510 . S
