# Generated by pormake.
# Topology pth, (4,4)-cn, num edge types: 1
# Building blocks:
#     Node 0, Type 0, BuildingBlock: CEKHIL_clean_sbu_0, # of connection points: 4
#     Node 1, Type 0, BuildingBlock: CEKHIL_clean_sbu_0, # of connection points: 4
#     Node 2, Type 0, BuildingBlock: CEKHIL_clean_sbu_0, # of connection points: 4
#     Node 3, Type 1, BuildingBlock: MUDLON_clean_sbu_0, # of connection points: 4
#     Node 4, Type 1, BuildingBlock: MUDLON_clean_sbu_0, # of connection points: 4
#     Node 5, Type 1, BuildingBlock: MUDLON_clean_sbu_0, # of connection points: 4
#     Edge 6, Type (0, 1), None
#     Edge 7, Type (0, 1), None
#     Edge 8, Type (0, 1), None
#     Edge 9, Type (0, 1), None
#     Edge 10, Type (0, 1), None
#     Edge 11, Type (0, 1), None
#     Edge 12, Type (0, 1), None
#     Edge 13, Type (0, 1), None
#     Edge 14, Type (0, 1), None
#     Edge 15, Type (0, 1), None
#     Edge 16, Type (0, 1), None
#     Edge 17, Type (0, 1), None
# Relax obj value: 0.014
# Max RMSD: 0.065
# Mean RMSD: 0.051
data_MOF--net-pth--node1-CEKHIL_clean_sbu_0--node2-MUDLON_clean_sbu_0--edge1-none
_symmetry_space_group_name_H-M    P1
_symmetry_Int_Tables_number       1
_symmetry_cell_setting            triclinic
loop_
_symmetry_equiv_pos_as_xyz
'x, y, z'
_cell_length_a     10.24261
_cell_length_b     10.373338
_cell_length_c     26.751311
_cell_angle_alpha  90.520193
_cell_angle_beta   90.823165
_cell_angle_gamma 119.67978
loop_
_atom_site_label
_atom_site_type_symbol
_atom_site_fract_x
_atom_site_fract_y
_atom_site_fract_z
_atom_type_partial_charge
Co0 Co 0.07156 0.06831 0.13607 0.0
O1 O 0.95618 0.94411 0.18992 0.0
O2 O 0.14019 0.92969 0.15246 0.0
C3 C 0.11358 0.2829 0.17176 0.0
O4 O 0.21681 0.18524 0.08049 0.0
Co5 Co 0.93983 0.23324 0.07722 0.0
O6 O 0.14519 0.34361 0.05045 0.0
C7 C 0.82333 0.91753 0.05534 0.0
C8 C 0.03775 0.88131 0.1866 0.0
C9 C 0.23794 0.29562 0.05313 0.0
O10 O 0.92302 0.92069 0.08578 0.0
O11 O 0.80373 0.02871 0.04842 0.0
O12 O 0.1989 0.22758 0.18337 0.0
O13 O 0.99792 0.20024 0.14322 0.0
Co14 Co 0.0603 0.05361 0.42139 0.0
O15 O 0.947 0.07168 0.36659 0.0
O16 O 0.13024 0.26156 0.40858 0.0
C17 C 0.10436 0.88479 0.38375 0.0
O18 O 0.20344 0.06919 0.47849 0.0
Co19 Co 0.91938 0.74721 0.47211 0.0
O20 O 0.12156 0.83526 0.50441 0.0
C21 C 0.79767 0.94385 0.49339 0.0
C22 C 0.0298 0.21369 0.37232 0.0
C23 C 0.21864 0.97316 0.50466 0.0
O24 O 0.90867 0.04845 0.47043 0.0
O25 O 0.7725 0.8102 0.49422 0.0
O26 O 0.18978 0.02456 0.3748 0.0
O27 O 0.98733 0.85182 0.41001 0.0
Co28 Co 0.08149 0.06079 0.74232 0.0
O29 O 0.23499 0.16246 0.69372 0.0
O30 O 0.20176 0.96517 0.73548 0.0
C31 C 0.89205 0.0537 0.69575 0.0
O32 O 0.93566 0.9207 0.79343 0.0
Co33 Co 0.91408 0.20151 0.79224 0.0
O34 O 0.788 0.00556 0.82313 0.0
C35 C 0.22526 0.29925 0.82409 0.0
C36 C 0.27701 0.06546 0.70268 0.0
C37 C 0.82665 0.90653 0.82042 0.0
O38 O 0.22182 0.19498 0.79685 0.0
O39 O 0.11764 0.32838 0.82504 0.0
O40 O 0.93291 0.9545 0.68956 0.0
O41 O 0.97192 0.15998 0.72752 0.0
Mg42 Mg 0.17039 0.61234 0.27986 0.0
C43 C 0.02038 0.3128 0.3354 0.0
O44 O 0.94002 0.25695 0.29412 0.0
C45 C 0.02372 0.77143 0.22338 0.0
O46 O 0.94506 0.75261 0.26367 0.0
C47 C 0.12551 0.41205 0.19842 0.0
O48 O 0.00692 0.42927 0.19808 0.0
O49 O 0.23429 0.48963 0.22902 0.0
O50 O 0.10876 0.4512 0.33949 0.0
O51 O 0.23291 0.79941 0.33043 0.0
C52 C 0.12124 0.76909 0.35821 0.0
O53 O 1.00431 0.63482 0.35639 0.0
O54 O 0.10671 0.71335 0.22008 0.0
Mg55 Mg 0.64572 0.19769 0.59174 0.0
C56 C 0.34975 0.02006 0.53833 0.0
O57 O 0.34722 0.92577 0.57123 0.0
C58 C 0.77794 0.05618 0.66243 0.0
O59 O 0.68553 0.93556 0.63698 0.0
C60 C 0.40209 0.06815 0.67573 0.0
O61 O 0.43515 0.96202 0.68159 0.0
O62 O 0.47161 0.16935 0.64414 0.0
O63 O 0.46568 0.14794 0.53639 0.0
O64 O 0.74909 0.11415 0.53817 0.0
C65 C 0.7008 0.9809 0.52327 0.0
O66 O 0.57266 0.87421 0.53944 0.0
O67 O 0.781 0.17784 0.65301 0.0
Mg68 Mg 0.55605 0.58971 0.938 0.0
C69 C 0.35723 0.3846 0.85711 0.0
O70 O 0.46506 0.35087 0.85872 0.0
C71 C 0.73629 0.78252 1.02445 0.0
O72 O 0.76328 0.6717 0.0285 0.0
C73 C 0.37009 0.36753 1.02118 0.0
O74 O 0.46575 0.31822 1.01861 0.0
O75 O 0.38585 0.47374 0.99369 0.0
O76 O 0.36531 0.48609 0.88612 0.0
O77 O 0.65412 0.76584 0.88333 0.0
C78 C 0.75047 0.77512 0.85202 0.0
O79 O 0.79105 0.67325 0.85114 0.0
O80 O 0.64687 0.77758 0.99011 0.0
loop_
_geom_bond_atom_site_label_1
_geom_bond_atom_site_label_2
_geom_bond_distance
_geom_bond_site_symmetry_2
_ccdc_geom_bond_type
Co0 O1 2.216 1_445 S
Co0 O2 2.091 1_545 S
Co0 O4 2.004 . S
Co0 O10 2.021 1_445 S
Co0 O12 2.137 . S
Co0 O13 2.244 1_455 S
O1 Co0 2.216 1_665 S
O1 C8 1.247 1_655 S
O2 Co0 2.091 1_565 S
O2 C8 1.261 . S
C3 O12 1.247 . S
C3 O13 1.272 1_455 S
O4 Co0 2.004 . S
O4 C9 1.259 . S
Co5 O6 2.061 1_655 S
Co5 O11 2.052 . S
Co5 O13 2.135 . S
O6 Co5 2.061 1_455 S
O6 C9 1.235 . S
C7 O10 1.238 . S
C7 O11 1.241 1_565 S
C8 O1 1.247 1_455 S
C8 O2 1.261 . S
C9 O4 1.259 . S
C9 O6 1.235 . S
O10 Co0 2.021 1_665 S
O10 C7 1.238 . S
O11 Co5 2.052 . S
O11 C7 1.241 1_545 S
O12 Co0 2.137 . S
O12 C3 1.247 . S
O13 Co0 2.244 1_655 S
O13 C3 1.272 1_655 S
O13 Co5 2.135 . S
Co14 O15 2.216 1_455 S
Co14 O16 2.091 . S
Co14 O18 2.004 . S
Co14 O24 2.021 1_455 S
Co14 O26 2.137 . S
Co14 O27 2.244 1_445 S
O15 Co14 2.216 1_655 S
O15 C22 1.247 1_655 S
O16 Co14 2.091 . S
O16 C22 1.261 . S
C17 O26 1.247 1_565 S
C17 O27 1.272 1_455 S
O18 Co14 2.004 . S
O18 C23 1.259 . S
Co19 O20 2.061 1_655 S
Co19 O25 2.052 . S
Co19 O27 2.135 . S
O20 Co19 2.061 1_455 S
O20 C23 1.235 1_565 S
C21 O24 1.238 . S
C21 O25 1.241 1_545 S
C22 O15 1.247 1_455 S
C22 O16 1.261 . S
C23 O18 1.259 . S
C23 O20 1.235 1_545 S
O24 Co14 2.021 1_655 S
O24 C21 1.238 . S
O25 Co19 2.052 . S
O25 C21 1.241 1_565 S
O26 Co14 2.137 . S
O26 C17 1.247 1_545 S
O27 Co14 2.244 1_665 S
O27 C17 1.272 1_655 S
O27 Co19 2.135 . S
Co28 O29 2.216 . S
Co28 O30 2.091 1_545 S
Co28 O32 2.004 1_445 S
Co28 O38 2.021 . S
Co28 O40 2.137 1_445 S
Co28 O41 2.244 1_455 S
O29 Co28 2.216 . S
O29 C36 1.247 . S
O30 Co28 2.091 1_565 S
O30 C36 1.261 1_565 S
C31 O40 1.247 1_545 S
C31 O41 1.272 . S
O32 Co28 2.004 1_665 S
O32 C37 1.259 . S
Co33 O34 2.061 1_545 S
Co33 O39 2.052 1_655 S
Co33 O41 2.135 . S
O34 Co33 2.061 1_565 S
O34 C37 1.235 . S
C35 O38 1.238 . S
C35 O39 1.241 . S
C36 O29 1.247 . S
C36 O30 1.261 1_545 S
C37 O32 1.259 . S
C37 O34 1.235 . S
O38 Co28 2.021 . S
O38 C35 1.238 . S
O39 Co33 2.052 1_455 S
O39 C35 1.241 . S
O40 Co28 2.137 1_665 S
O40 C31 1.247 1_565 S
O41 Co28 2.244 1_655 S
O41 C31 1.272 . S
O41 Co33 2.135 . S
Mg42 O49 2.141 . S
Mg42 O50 2.048 . S
Mg42 O51 2.048 . S
Mg42 O54 2.141 . S
C43 O44 1.313 1_455 S
C43 O50 1.195 . S
O44 C43 1.313 1_655 S
C45 O46 1.245 1_455 S
C45 O54 1.289 . S
O46 C45 1.245 1_655 S
C47 O48 1.245 1_455 S
C47 O49 1.289 . S
O48 C47 1.245 1_655 S
O49 Mg42 2.141 . S
O49 C47 1.289 . S
O50 Mg42 2.048 . S
O50 C43 1.195 . S
O51 Mg42 2.048 . S
O51 C52 1.195 . S
C52 O51 1.195 . S
C52 O53 1.313 1_455 S
O53 C52 1.313 1_655 S
O54 Mg42 2.141 . S
O54 C45 1.289 . S
Mg55 O62 2.141 . S
Mg55 O63 2.048 . S
Mg55 O64 2.048 . S
Mg55 O67 2.141 . S
C56 O57 1.313 1_545 S
C56 O63 1.195 . S
O57 C56 1.313 1_565 S
C58 O59 1.245 1_545 S
C58 O67 1.289 . S
O59 C58 1.245 1_565 S
C60 O61 1.245 1_545 S
C60 O62 1.289 . S
O61 C60 1.245 1_565 S
O62 Mg55 2.141 . S
O62 C60 1.289 . S
O63 Mg55 2.048 . S
O63 C56 1.195 . S
O64 Mg55 2.048 . S
O64 C65 1.195 . S
C65 O64 1.195 . S
C65 O66 1.313 1_545 S
O66 C65 1.313 1_565 S
O67 Mg55 2.141 . S
O67 C58 1.289 . S
Mg68 O75 2.141 . S
Mg68 O76 2.048 . S
Mg68 O77 2.048 . S
Mg68 O80 2.141 . S
C69 O70 1.313 . S
C69 O76 1.195 . S
O70 C69 1.313 . S
C71 O72 1.245 . S
C71 O80 1.289 . S
O72 C71 1.245 . S
C73 O74 1.245 . S
C73 O75 1.289 . S
O74 C73 1.245 . S
O75 Mg68 2.141 . S
O75 C73 1.289 . S
O76 Mg68 2.048 . S
O76 C69 1.195 . S
O77 Mg68 2.048 . S
O77 C78 1.195 . S
C78 O77 1.195 . S
C78 O79 1.313 . S
O79 C78 1.313 . S
O80 Mg68 2.141 . S
O80 C71 1.289 . S
C47 C3 1.406 . S
C21 C65 1.530 . S
C37 C78 1.485 . S
C8 C45 1.448 . S
C56 C23 1.471 . S
C35 C69 1.513 . S
C58 C31 1.422 . S
C7 C71 1.410 1_554 S
C52 C17 1.510 . S
C60 C36 1.351 . S
C73 C9 1.385 1_556 S
C22 C43 1.540 . S
