# Generated by pormake.
# Topology pts, (4,4)-cn, num edge types: 1
# Building blocks:
#     Node 0, Type 0, BuildingBlock: KOZSID_clean_sbu_0, # of connection points: 4
#     Node 1, Type 0, BuildingBlock: KOZSID_clean_sbu_0, # of connection points: 4
#     Node 2, Type 1, BuildingBlock: QUQFOY_clean_sbu_1, # of connection points: 4
#     Node 3, Type 1, BuildingBlock: QUQFOY_clean_sbu_1, # of connection points: 4
#     Edge 4, Type (0, 1), None
#     Edge 5, Type (0, 1), None
#     Edge 6, Type (0, 1), None
#     Edge 7, Type (0, 1), None
#     Edge 8, Type (0, 1), None
#     Edge 9, Type (0, 1), None
#     Edge 10, Type (0, 1), None
#     Edge 11, Type (0, 1), None
# Relax obj value: 0.091
# Max RMSD: 0.258
# Mean RMSD: 0.146
data_MOF--net-pts--node1-KOZSID_clean_sbu_0--node2-QUQFOY_clean_sbu_1--edge1-none
_symmetry_space_group_name_H-M    P1
_symmetry_Int_Tables_number       1
_symmetry_cell_setting            triclinic
loop_
_symmetry_equiv_pos_as_xyz
'x, y, z'
_cell_length_a     12.647819
_cell_length_b     14.686468
_cell_length_c     20.921985
_cell_angle_alpha  83.006243
_cell_angle_beta   98.400745
_cell_angle_gamma 90.288119
loop_
_atom_site_label
_atom_site_type_symbol
_atom_site_fract_x
_atom_site_fract_y
_atom_site_fract_z
_atom_type_partial_charge
C0 C 0.738 0.2178 0.13516 0.0
C1 C 0.75447 0.30216 0.15867 0.0
C2 C 0.70574 0.36699 0.11146 0.0
C3 C 0.66038 0.31899 0.06253 0.0
N4 N 0.67508 0.22714 0.07612 0.0
Co5 Co 0.61294 0.13155 0.02078 0.0
N6 N 0.54359 0.22707 0.95063 0.0
C7 C 0.55169 0.31906 0.94963 0.0
C8 C 0.50679 0.36722 0.89201 0.0
C9 C 0.46505 0.30224 0.85454 0.0
C10 C 0.48421 0.21747 0.89227 0.0
N11 N 0.55268 0.03593 0.9652 0.0
C12 C 0.49131 0.04524 0.90581 0.0
C13 C 0.47999 0.96155 0.8808 0.0
C14 C 0.52971 0.8968 0.92768 0.0
C15 C 0.57107 0.94439 0.97773 0.0
N16 N 0.68034 0.03594 0.09125 0.0
C17 C 0.66897 0.9441 0.09317 0.0
C18 C 0.70789 0.89641 0.15219 0.0
C19 C 0.74862 0.96159 0.18979 0.0
C20 C 0.73555 0.04569 0.15065 0.0
N21 N 0.48296 0.12744 0.06391 0.0
C22 C 0.32207 0.11863 0.14431 0.0
C23 C 0.35918 0.03931 0.1237 0.0
C24 C 0.43817 0.04537 0.08326 0.0
C25 C 0.36148 0.20299 0.12009 0.0
C26 C 0.44015 0.20584 0.07953 0.0
N27 N 0.74289 0.13536 0.97754 0.0
C28 C 0.86984 0.05606 0.92753 0.0
C29 C 0.90216 0.13889 0.89618 0.0
C30 C 0.85909 0.22024 0.91024 0.0
C31 C 0.78104 0.2169 0.95132 0.0
C32 C 0.79194 0.05601 0.96845 0.0
H33 H 0.75202 0.28117 0.96053 0.0
H34 H 0.77174 0.99094 0.99163 0.0
H35 H 0.46257 0.98257 0.06894 0.0
H36 H 0.46582 0.27212 0.06192 0.0
C37 C 0.60425 0.35796 1.00306 0.0
C38 C 0.78856 0.131 0.16784 0.0
C39 C 0.43569 0.13058 0.87457 0.0
C40 C 0.62187 0.90485 0.03852 0.0
H41 H 0.79767 0.31607 0.20494 0.0
H42 H 0.70401 0.44046 0.11257 0.0
H43 H 0.50491 0.44083 0.87869 0.0
H44 H 0.42426 0.31643 0.80523 0.0
H45 H 0.43845 0.94796 0.83402 0.0
H46 H 0.5336 0.82356 0.92591 0.0
H47 H 0.70712 0.82301 0.1662 0.0
H48 H 0.78608 0.94809 0.23992 0.0
H49 H 0.32854 0.97249 0.13919 0.0
H50 H 0.33234 0.26686 0.1325 0.0
H51 H 0.90394 0.99116 0.92045 0.0
H52 H 0.88433 0.28637 0.88916 0.0
C53 C 0.21345 0.48597 0.63072 0.0
C54 C 0.31239 0.46351 0.66806 0.0
C55 C 0.38233 0.52877 0.64909 0.0
C56 C 0.32341 0.58648 0.60077 0.0
N57 N 0.22053 0.56187 0.58746 0.0
Co58 Co 0.10897 0.62878 0.52108 0.0
N59 N 0.21772 0.70626 0.48039 0.0
C60 C 0.32164 0.7122 0.50542 0.0
C61 C 0.37772 0.77348 0.46913 0.0
C62 C 0.30453 0.81039 0.4183 0.0
C63 C 0.20692 0.77028 0.42707 0.0
N64 N 0.99724 0.69621 0.45514 0.0
C65 C 0.0059 0.75271 0.39947 0.0
C66 C 0.9051 0.78401 0.3688 0.0
C67 C 0.83245 0.74787 0.40691 0.0
C68 C 0.89167 0.69654 0.45873 0.0
N69 N 0.00114 0.5514 0.56215 0.0
C70 C 0.89537 0.56914 0.55402 0.0
C71 C 0.83956 0.50267 0.58634 0.0
C72 C 0.91482 0.43924 0.61722 0.0
C73 C 0.01322 0.47032 0.60182 0.0
N74 N 0.09766 0.72163 0.58043 0.0
C75 C 0.10103 0.85531 0.66633 0.0
C76 C 0.10186 0.76145 0.68933 0.0
C77 C 0.09938 0.69597 0.64569 0.0
C78 C 0.09394 0.88059 0.59917 0.0
C79 C 0.09204 0.8131 0.55731 0.0
N80 N 0.11838 0.53559 0.46164 0.0
C81 C 0.02623 0.435 0.38942 0.0
C82 C 0.12279 0.3971 0.38019 0.0
C83 C 0.21802 0.43008 0.41209 0.0
C84 C 0.2141 0.49986 0.45246 0.0
C85 C 0.02564 0.50318 0.43033 0.0
H86 H 0.28818 0.52446 0.47639 0.0
H87 H 0.94913 0.52886 0.43682 0.0
H88 H 0.10065 0.62454 0.6651 0.0
H89 H 0.08772 0.8358 0.50626 0.0
C90 C 0.36497 0.65685 0.56168 0.0
C91 C 0.11654 0.43071 0.63545 0.0
C92 C 0.10655 0.7954 0.38331 0.0
C93 C 0.8499 0.63891 0.50684 0.0
H94 H 0.33316 0.40478 0.7041 0.0
H95 H 0.46708 0.53146 0.6665 0.0
H96 H 0.46192 0.78908 0.47832 0.0
H97 H 0.32116 0.86152 0.37937 0.0
H98 H 0.8858 0.83207 0.32527 0.0
H99 H 0.74654 0.75762 0.3977 0.0
H100 H 0.75395 0.4992 0.58595 0.0
H101 H 0.89927 0.37849 0.64908 0.0
H102 H 0.10592 0.73841 0.74082 0.0
H103 H 0.09192 0.95215 0.57893 0.0
H104 H 0.95104 0.4116 0.36535 0.0
H105 H 0.29457 0.4028 0.40552 0.0
O106 O 0.93287 0.05118 0.22537 0.0
Cd107 Cd 0.08515 0.00978 0.26646 0.0
Cd108 Cd 0.09286 0.21507 0.26168 0.0
O109 O 0.93859 0.20158 0.21393 0.0
O110 O 0.05626 0.87344 0.28115 0.0
O111 O 0.13943 0.94925 0.35768 0.0
C112 C 0.10182 0.87268 0.34031 0.0
C113 C 0.12112 0.32636 0.33534 0.0
C114 C 0.88766 0.12828 0.20456 0.0
C115 C 0.24094 0.11394 0.18898 0.0
O116 O 0.21293 0.18753 0.20902 0.0
O117 O 0.1991 0.0371 0.20565 0.0
O118 O 0.10408 0.3495 0.27332 0.0
O119 O 0.12302 0.23991 0.35634 0.0
O120 O 0.01892 0.21609 0.82786 0.0
Cd121 Cd 0.13437 0.23336 0.76704 0.0
Cd122 Cd 0.13636 0.03641 0.78535 0.0
O123 O 0.0158 0.06406 0.83731 0.0
O124 O 0.15812 0.36764 0.74207 0.0
O125 O 0.08277 0.27953 0.67105 0.0
C126 C 0.11829 0.35908 0.68298 0.0
C127 C 0.11115 0.92593 0.71204 0.0
C128 C 0.98245 0.14 0.85109 0.0
C129 C 0.33682 0.12899 0.83803 0.0
O130 O 0.28957 0.05345 0.83126 0.0
O131 O 0.28803 0.20354 0.81413 0.0
O132 O 0.12586 0.90251 0.77413 0.0
O133 O 0.10906 0.01261 0.69134 0.0
loop_
_geom_bond_atom_site_label_1
_geom_bond_atom_site_label_2
_geom_bond_distance
_geom_bond_site_symmetry_2
_ccdc_geom_bond_type
C0 C1 1.443 . S
C0 N4 1.376 . S
C0 C38 1.389 . S
C1 C0 1.443 . S
C1 C2 1.340 . S
C1 H41 0.951 . S
C2 C1 1.340 . S
C2 C3 1.439 . S
C2 H42 0.950 . S
C3 C2 1.439 . S
C3 N4 1.374 . S
C3 C37 1.395 1_554 S
N4 C0 1.376 . S
N4 C3 1.374 . S
N4 Co5 2.008 . S
Co5 N4 2.008 . S
Co5 N6 1.995 1_554 S
Co5 N11 2.008 1_554 S
Co5 N16 1.995 . S
Co5 N21 2.282 . S
Co5 N27 2.282 1_554 S
N6 Co5 1.995 1_556 S
N6 C7 1.376 . S
N6 C10 1.383 . S
C7 N6 1.376 . S
C7 C8 1.446 . S
C7 C37 1.391 . S
C8 C7 1.446 . S
C8 C9 1.339 . S
C8 H43 0.949 . S
C9 C8 1.339 . S
C9 C10 1.439 . S
C9 H44 0.950 . S
C10 N6 1.383 . S
C10 C9 1.439 . S
C10 C39 1.392 . S
N11 Co5 2.008 1_556 S
N11 C12 1.376 . S
N11 C15 1.374 1_545 S
C12 N11 1.376 . S
C12 C13 1.443 1_545 S
C12 C39 1.389 . S
C13 C12 1.443 1_565 S
C13 C14 1.340 . S
C13 H45 0.951 . S
C14 C13 1.340 . S
C14 C15 1.439 . S
C14 H46 0.950 . S
C15 N11 1.374 1_565 S
C15 C14 1.439 . S
C15 C40 1.395 1_556 S
N16 Co5 1.995 . S
N16 C17 1.376 1_545 S
N16 C20 1.383 . S
C17 N16 1.376 1_565 S
C17 C18 1.446 . S
C17 C40 1.391 . S
C18 C17 1.446 . S
C18 C19 1.339 . S
C18 H47 0.949 . S
C19 C18 1.339 . S
C19 C20 1.439 1_565 S
C19 H48 0.950 . S
C20 N16 1.383 . S
C20 C19 1.439 1_545 S
C20 C38 1.392 . S
N21 Co5 2.282 . S
N21 C24 1.332 . S
N21 C26 1.332 . S
C22 C23 1.386 . S
C22 C25 1.388 . S
C23 C22 1.386 . S
C23 C24 1.382 . S
C23 H49 0.950 1_545 S
C24 N21 1.332 . S
C24 C23 1.382 . S
C24 H35 0.952 . S
C25 C22 1.388 . S
C25 C26 1.382 . S
C25 H50 0.950 . S
C26 N21 1.332 . S
C26 C25 1.382 . S
C26 H36 0.948 . S
N27 Co5 2.282 1_556 S
N27 C31 1.332 . S
N27 C32 1.332 . S
C28 C29 1.388 . S
C28 C32 1.382 . S
C28 H51 0.950 . S
C29 C28 1.388 . S
C29 C30 1.386 . S
C30 C29 1.386 . S
C30 C31 1.382 . S
C30 H52 0.950 . S
C31 N27 1.332 . S
C31 C30 1.382 . S
C31 H33 0.952 . S
C32 N27 1.332 . S
C32 C28 1.382 . S
C32 H34 0.948 . S
H33 C31 0.952 . S
H34 C32 0.948 . S
H35 C24 0.952 . S
H36 C26 0.948 . S
C37 C3 1.395 1_556 S
C37 C7 1.391 . S
C38 C0 1.389 . S
C38 C20 1.392 . S
C39 C10 1.392 . S
C39 C12 1.389 . S
C40 C15 1.395 1_554 S
C40 C17 1.391 . S
H41 C1 0.951 . S
H42 C2 0.950 . S
H43 C8 0.949 . S
H44 C9 0.950 . S
H45 C13 0.951 . S
H46 C14 0.950 . S
H47 C18 0.949 . S
H48 C19 0.950 . S
H49 C23 0.950 1_565 S
H50 C25 0.950 . S
H51 C28 0.950 . S
H52 C30 0.950 . S
C53 C54 1.443 . S
C53 N57 1.376 . S
C53 C91 1.389 . S
C54 C53 1.443 . S
C54 C55 1.340 . S
C54 H94 0.951 . S
C55 C54 1.340 . S
C55 C56 1.439 . S
C55 H95 0.950 . S
C56 C55 1.439 . S
C56 N57 1.374 . S
C56 C90 1.395 . S
N57 C53 1.376 . S
N57 C56 1.374 . S
N57 Co58 2.008 . S
Co58 N57 2.008 . S
Co58 N59 1.995 . S
Co58 N64 2.008 . S
Co58 N69 1.995 . S
Co58 N74 2.282 . S
Co58 N80 2.282 . S
N59 Co58 1.995 . S
N59 C60 1.376 . S
N59 C63 1.383 . S
C60 N59 1.376 . S
C60 C61 1.446 . S
C60 C90 1.391 . S
C61 C60 1.446 . S
C61 C62 1.339 . S
C61 H96 0.949 . S
C62 C61 1.339 . S
C62 C63 1.439 . S
C62 H97 0.950 . S
C63 N59 1.383 . S
C63 C62 1.439 . S
C63 C92 1.392 . S
N64 Co58 2.008 . S
N64 C65 1.376 . S
N64 C68 1.374 1_455 S
C65 N64 1.376 . S
C65 C66 1.443 1_455 S
C65 C92 1.389 . S
C66 C65 1.443 1_655 S
C66 C67 1.340 . S
C66 H98 0.951 . S
C67 C66 1.340 . S
C67 C68 1.439 . S
C67 H99 0.950 . S
C68 N64 1.374 1_655 S
C68 C67 1.439 . S
C68 C93 1.395 . S
N69 Co58 1.995 . S
N69 C70 1.376 1_455 S
N69 C73 1.383 . S
C70 N69 1.376 1_655 S
C70 C71 1.446 . S
C70 C93 1.391 . S
C71 C70 1.446 . S
C71 C72 1.339 . S
C71 H100 0.949 . S
C72 C71 1.339 . S
C72 C73 1.439 1_655 S
C72 H101 0.950 . S
C73 N69 1.383 . S
C73 C72 1.439 1_455 S
C73 C91 1.392 . S
N74 Co58 2.282 . S
N74 C77 1.332 . S
N74 C79 1.332 . S
C75 C76 1.386 . S
C75 C78 1.388 . S
C76 C75 1.386 . S
C76 C77 1.382 . S
C76 H102 0.950 1_455 S
C77 N74 1.332 . S
C77 C76 1.382 . S
C77 H88 0.952 1_455 S
C78 C75 1.388 . S
C78 C79 1.382 . S
C78 H103 0.950 . S
C79 N74 1.332 . S
C79 C78 1.382 . S
C79 H89 0.948 . S
N80 Co58 2.282 . S
N80 C84 1.332 . S
N80 C85 1.332 . S
C81 C82 1.388 . S
C81 C85 1.382 . S
C81 H104 0.950 1_455 S
C82 C81 1.388 . S
C82 C83 1.386 . S
C83 C82 1.386 . S
C83 C84 1.382 . S
C83 H105 0.950 . S
C84 N80 1.332 . S
C84 C83 1.382 . S
C84 H86 0.952 . S
C85 N80 1.332 . S
C85 C81 1.382 . S
C85 H87 0.948 1_455 S
H86 C84 0.952 . S
H87 C85 0.948 1_655 S
H88 C77 0.952 1_655 S
H89 C79 0.948 . S
C90 C56 1.395 . S
C90 C60 1.391 . S
C91 C53 1.389 . S
C91 C73 1.392 . S
C92 C63 1.392 . S
C92 C65 1.389 . S
C93 C68 1.395 . S
C93 C70 1.391 . S
H94 C54 0.951 . S
H95 C55 0.950 . S
H96 C61 0.949 . S
H97 C62 0.950 . S
H98 C66 0.951 . S
H99 C67 0.950 . S
H100 C71 0.949 . S
H101 C72 0.950 . S
H102 C76 0.950 1_655 S
H103 C78 0.950 . S
H104 C81 0.950 1_655 S
H105 C83 0.950 . S
O106 Cd107 2.223 . S
O106 C114 1.315 1_465 S
Cd107 O106 2.223 . S
Cd107 O110 2.297 . S
Cd107 O111 2.439 . S
Cd107 O117 2.240 1_565 S
Cd108 O109 2.240 1_455 S
Cd108 O116 2.223 . S
Cd108 O118 2.297 . S
Cd108 O119 2.439 . S
O109 Cd108 2.240 1_655 S
O109 C114 1.279 . S
O110 Cd107 2.297 . S
O110 C112 1.247 . S
O111 Cd107 2.439 . S
O111 C112 1.208 . S
C112 O110 1.247 . S
C112 O111 1.208 . S
C113 O118 1.247 . S
C113 O119 1.208 . S
C114 O106 1.315 1_645 S
C114 O109 1.279 . S
C115 O116 1.315 . S
C115 O117 1.279 . S
O116 Cd108 2.223 . S
O116 C115 1.315 . S
O117 Cd107 2.240 1_545 S
O117 C115 1.279 . S
O118 Cd108 2.297 . S
O118 C113 1.247 . S
O119 Cd108 2.439 . S
O119 C113 1.208 . S
O120 Cd121 2.223 . S
O120 C128 1.315 . S
Cd121 O120 2.223 . S
Cd121 O124 2.297 . S
Cd121 O125 2.439 . S
Cd121 O131 2.240 . S
Cd122 O123 2.240 . S
Cd122 O130 2.223 . S
Cd122 O132 2.297 1_545 S
Cd122 O133 2.439 . S
O123 Cd122 2.240 . S
O123 C128 1.279 . S
O124 Cd121 2.297 . S
O124 C126 1.247 . S
O125 Cd121 2.439 . S
O125 C126 1.208 . S
C126 O124 1.247 . S
C126 O125 1.208 . S
C127 O132 1.247 . S
C127 O133 1.208 1_565 S
C128 O120 1.315 . S
C128 O123 1.279 . S
C129 O130 1.315 . S
C129 O131 1.279 . S
O130 Cd122 2.223 . S
O130 C129 1.315 . S
O131 Cd121 2.240 . S
O131 C129 1.279 . S
O132 Cd122 2.297 1_565 S
O132 C127 1.247 . S
O133 Cd122 2.439 . S
O133 C127 1.208 1_545 S
C115 C22 1.721 . S
C126 C91 1.804 . S
C114 C38 2.033 . S
C127 C75 1.585 . S
C129 C39 2.022 . S
C113 C82 1.580 . S
C128 C29 1.713 1_455 S
C92 C112 1.781 . S
