# Generated by pormake.
# Topology bcu-b, (8,8)-cn, num edge types: 1
# Building blocks:
#     Node 0, Type 0, BuildingBlock: TAGTUT_clean_sbu_1, # of connection points: 8
#     Node 1, Type 1, BuildingBlock: VETTIZ_charged_sbu_0, # of connection points: 8
#     Edge 2, Type (0, 1), BuildingBlock: EZIPEK_clean_linker_0, # of connection points: 2
#     Edge 3, Type (0, 1), BuildingBlock: EZIPEK_clean_linker_0, # of connection points: 2
#     Edge 4, Type (0, 1), BuildingBlock: EZIPEK_clean_linker_0, # of connection points: 2
#     Edge 5, Type (0, 1), BuildingBlock: EZIPEK_clean_linker_0, # of connection points: 2
#     Edge 6, Type (0, 1), BuildingBlock: EZIPEK_clean_linker_0, # of connection points: 2
#     Edge 7, Type (0, 1), BuildingBlock: EZIPEK_clean_linker_0, # of connection points: 2
#     Edge 8, Type (0, 1), BuildingBlock: EZIPEK_clean_linker_0, # of connection points: 2
#     Edge 9, Type (0, 1), BuildingBlock: EZIPEK_clean_linker_0, # of connection points: 2
# Relax obj value: 0.026
# Max RMSD: 0.115
# Mean RMSD: 0.087
data_MOF--net-bcu-b--node1-TAGTUT_clean_sbu_1--node2-VETTIZ_charged_sbu_0--edge1-EZIPEK_clean_linker_0
_symmetry_space_group_name_H-M    P1
_symmetry_Int_Tables_number       1
_symmetry_cell_setting            triclinic
loop_
_symmetry_equiv_pos_as_xyz
'x, y, z'
_cell_length_a     14.787016
_cell_length_b     15.187863
_cell_length_c     15.7377
_cell_angle_alpha  92.440214
_cell_angle_beta   91.142684
_cell_angle_gamma 99.815536
loop_
_atom_site_label
_atom_site_type_symbol
_atom_site_fract_x
_atom_site_fract_y
_atom_site_fract_z
_atom_type_partial_charge
C0 C 0.74935 0.14488 0.06783 0.0
C1 C 0.86328 0.16195 0.81826 0.0
C2 C 0.92125 0.81001 0.87918 0.0
Mg3 Mg 0.94703 0.1803 0.00139 0.0
O4 O 0.92605 0.05704 0.00908 0.0
Mg5 Mg 0.82051 0.98421 0.94455 0.0
Mg6 Mg 0.02426 0.98562 0.9953 0.0
O7 O 0.12335 0.91484 0.98131 0.0
Mg8 Mg 0.1061 0.79151 0.98621 0.0
Mg9 Mg 0.22908 -0.01047 0.04454 0.0
C10 C 0.1295 0.16141 0.10967 0.0
C11 C 0.18238 0.09667 0.88108 0.0
O12 O 0.73023 0.07357 0.01886 0.0
O13 O 0.82868 0.19442 0.07235 0.0
O14 O 0.82893 0.08072 0.83228 0.0
O15 O 0.91612 0.21172 0.8727 0.0
O16 O 0.07889 0.20952 0.07148 0.0
O17 O 0.11874 0.07546 0.09704 0.0
C18 C 0.86389 0.8752 0.10845 0.0
O19 O 0.95107 0.89678 0.10047 0.0
O20 O 0.8072 0.8987 0.0559 0.0
O21 O 0.32202 0.9041 0.97081 0.0
O22 O 0.22636 0.78212 0.91588 0.0
O23 O 0.22301 0.89299 0.15529 0.0
C24 C 0.30498 0.83291 0.92185 0.0
O25 O 0.13898 0.76015 0.1145 0.0
O26 O 0.9738 0.7624 0.91565 0.0
C27 C 0.19205 0.81075 0.16829 0.0
O28 O 0.93044 0.89578 0.89346 0.0
O29 O 0.09561 0.07411 0.88997 0.0
O30 O 0.24013 0.07469 0.93341 0.0
Fe31 Fe 0.53699 0.58845 0.49939 0.0
O32 O 0.45876 0.48734 0.55406 0.0
Fe33 Fe 0.72125 0.49208 0.42859 0.0
Fe34 Fe 0.32654 0.48217 0.56491 0.0
O35 O 0.58748 0.49145 0.43625 0.0
O36 O 0.5883 0.48253 0.43885 0.0
O37 O 0.45945 0.47795 0.5565 0.0
Fe38 Fe 0.5071 0.38066 0.4903 0.0
C39 C 0.42588 0.65778 0.64482 0.0
O40 O 0.43722 0.59223 0.40394 0.0
O41 O 0.31901 0.5866 0.48775 0.0
O42 O 0.56561 0.29332 0.41033 0.0
O43 O 0.67969 0.38596 0.34246 0.0
O44 O 0.70966 0.59232 0.35003 0.0
O45 O 0.62816 0.68169 0.43027 0.0
O46 O 0.28581 0.38674 0.46529 0.0
O47 O 0.41304 0.38352 0.39362 0.0
C48 C 0.68174 0.66699 0.36781 0.0
O49 O 0.6031 0.36925 0.58459 0.0
O50 O 0.73423 0.39809 0.51553 0.0
O51 O 0.47753 0.6761 0.5794 0.0
O52 O 0.37179 0.58234 0.65541 0.0
C53 C 0.3575 0.61025 0.41951 0.0
C54 C 0.32679 0.36294 0.39957 0.0
C55 C 0.35929 0.30085 0.61774 0.0
O56 O 0.33272 0.37576 0.63705 0.0
O57 O 0.41376 0.28675 0.55597 0.0
C58 C 0.62295 0.31127 0.34927 0.0
O59 O 0.75927 0.59334 0.5225 0.0
O60 O 0.63264 0.59085 0.59606 0.0
C61 C 0.6873 0.36218 0.57545 0.0
C62 C 0.71864 0.61336 0.58951 0.0
C63 C 0.27217 0.19912 0.20677 0.0
C64 C 0.17966 0.20522 0.18758 0.0
C65 C 0.18515 0.31966 0.30267 0.0
C66 C 0.27389 0.30628 0.32864 0.0
N67 N 0.38305 0.20426 0.32189 0.0
N68 N 0.0396 0.24733 0.24138 0.0
C69 C 0.31243 0.23754 0.28544 0.0
C70 C 0.13327 0.25782 0.24318 0.0
N71 N 0.3228 0.15992 0.14969 0.0
N72 N 0.15174 0.39365 0.3303 0.0
H73 H 0.99801 0.19753 0.2038 0.0
H74 H 1.00371 0.28053 0.28523 0.0
H75 H 0.19185 0.44501 0.36644 0.0
H76 H 0.08978 0.4089 0.30749 0.0
H77 H 0.39288 0.16018 0.15921 0.0
H78 H 0.29694 0.137 0.08931 0.0
H79 H 0.40971 0.15078 0.29443 0.0
H80 H 0.4044 0.22089 0.38485 0.0
C81 C 0.64813 0.24883 0.12406 0.0
C82 C 0.68216 0.16743 0.1299 0.0
C83 C 0.64548 0.16329 0.2812 0.0
C84 C 0.61763 0.24749 0.27512 0.0
N85 N 0.55388 0.34832 0.1872 0.0
N86 N 0.68811 0.03386 0.20651 0.0
C87 C 0.60467 0.28177 0.1947 0.0
C88 C 0.67093 0.1194 0.2058 0.0
N89 N 0.66424 0.29868 0.05418 0.0
N90 N 0.65327 0.12836 0.35899 0.0
H91 H 0.7083 0.00061 0.15279 0.0
H92 H 0.67458 -0.00692 0.25788 0.0
H93 H 0.63091 0.15686 0.41441 0.0
H94 H 0.68467 0.07322 0.36917 0.0
H95 H 0.64915 0.36301 0.05056 0.0
H96 H 0.70044 0.27885 0.00303 0.0
H97 H 0.53636 0.37151 0.12875 0.0
H98 H 0.52131 0.37302 0.23912 0.0
C99 C 0.74982 0.75018 0.15812 0.0
C100 C 0.82251 0.82222 0.17929 0.0
C101 C 0.79051 0.80476 0.33088 0.0
C102 C 0.71423 0.73717 0.30818 0.0
N103 N 0.60646 0.66351 0.20088 0.0
N104 N 0.89853 0.93141 0.28534 0.0
C105 C 0.68879 0.71663 0.22173 0.0
C106 C 0.83932 0.85355 0.26565 0.0
N107 N 0.74143 0.71129 0.07771 0.0
N108 N 0.81835 0.82002 0.41425 0.0
H109 H 0.93528 0.96937 0.23977 0.0
H110 H 0.90562 0.96199 0.34619 0.0
H111 H 0.7817 0.78816 0.46354 0.0
H112 H 0.87995 0.86061 0.43378 0.0
H113 H 0.69434 0.65373 0.06073 0.0
H114 H 0.78822 0.73074 0.03042 0.0
H115 H 0.58028 0.65236 0.13865 0.0
H116 H 0.5604 0.63852 0.24706 0.0
C117 C 0.32975 0.77101 0.24503 0.0
C118 C 0.23324 0.76827 0.2396 0.0
C119 C 0.21397 0.6639 0.35536 0.0
C120 C 0.31225 0.66921 0.36277 0.0
N121 N 0.45747 0.76464 0.34031 0.0
N122 N 0.08696 0.73244 0.30454 0.0
C123 C 0.36847 0.73354 0.31509 0.0
C124 C 0.17648 0.72087 0.29937 0.0
N125 N 0.38514 0.80649 0.18217 0.0
N126 N 0.15476 0.60389 0.3988 0.0
H127 H 0.05785 0.77389 0.26471 0.0
H128 H 0.04449 0.70872 0.35357 0.0
H129 H 0.17292 0.56424 0.44596 0.0
H130 H 0.08471 0.58871 0.38389 0.0
H131 H 0.45454 0.80135 0.18017 0.0
H132 H 0.36066 0.83264 0.12789 0.0
H133 H 0.49921 0.81595 0.31045 0.0
H134 H 0.48445 0.74957 0.3985 0.0
C135 C 0.36297 0.85064 0.77642 0.0
C136 C 0.37181 0.8157 0.85768 0.0
C137 C 0.45721 0.70559 0.79661 0.0
C138 C 0.42819 0.72622 0.71446 0.0
N139 N 0.35879 0.8214 0.62355 0.0
N140 N 0.43544 0.71807 0.94905 0.0
C141 C 0.38507 0.80147 0.70325 0.0
C142 C 0.42347 0.74683 0.86923 0.0
N143 N 0.33055 0.92914 0.76971 0.0
N144 N 0.5156 0.64549 0.8043 0.0
H145 H 0.41417 0.75043 0.00301 0.0
H146 H 0.46366 0.66157 0.96165 0.0
H147 H 0.54106 0.61498 0.75135 0.0
H148 H 0.54502 0.63202 0.86189 0.0
H149 H 0.32873 0.96213 0.71321 0.0
H150 H 0.31359 0.96563 0.82288 0.0
H151 H 0.31698 0.86844 0.61193 0.0
H152 H 0.37531 0.78766 0.56848 0.0
C153 C 0.29598 0.21972 0.82833 0.0
C154 C 0.22194 0.14857 0.80905 0.0
C155 C 0.24952 0.16485 0.65662 0.0
C156 C 0.32763 0.23083 0.6775 0.0
N157 N 0.43932 0.30304 0.78219 0.0
N158 N 0.14103 0.04001 0.70469 0.0
C159 C 0.3558 0.2513 0.76332 0.0
C160 C 0.20194 0.11708 0.72304 0.0
N161 N 0.30682 0.25973 0.90826 0.0
N162 N 0.21903 0.15016 0.57393 0.0
H163 H 0.10545 0.00237 0.75109 0.0
H164 H 0.13147 0.00955 0.64385 0.0
H165 H 0.25487 0.18137 0.52385 0.0
H166 H 0.15621 0.11085 0.55591 0.0
H167 H 0.35521 0.31676 0.92381 0.0
H168 H 0.26076 0.24197 0.95655 0.0
H169 H 0.46726 0.31421 0.84381 0.0
H170 H 0.48419 0.32684 0.73473 0.0
C171 C 0.74236 0.24914 0.77636 0.0
C172 C 0.81728 0.2074 0.75224 0.0
C173 C 0.79737 0.25398 0.60705 0.0
C174 C 0.73361 0.3094 0.636 0.0
N175 N 0.66998 0.37749 0.75771 0.0
N176 N 0.92364 0.17812 0.64553 0.0
C177 C 0.71292 0.31208 0.72336 0.0
C178 C 0.84767 0.21273 0.66785 0.0
N179 N 0.69641 0.2265 0.8485 0.0
N180 N 0.80605 0.23565 0.52215 0.0
H181 H 0.95952 0.1451 0.68825 0.0
H182 H 0.95445 0.18812 0.58692 0.0
H183 H 0.76598 0.25761 0.47509 0.0
H184 H 0.84537 0.18966 0.49886 0.0
H185 H 0.6351 0.2485 0.86286 0.0
H186 H 0.71358 0.17823 0.88803 0.0
H187 H 0.66008 0.38469 0.82293 0.0
H188 H 0.65466 0.43051 0.72331 0.0
C189 C 0.9137 0.71245 0.74547 0.0
C190 C 0.86918 0.76608 0.80201 0.0
C191 C 0.73482 0.73629 0.70576 0.0
C192 C 0.77196 0.66756 0.66112 0.0
N193 N 0.8923 0.57748 0.65605 0.0
N194 N 0.72771 0.81323 0.8424 0.0
C195 C 0.86023 0.65178 0.68585 0.0
C196 C 0.77675 0.77368 0.78416 0.0
N197 N 1.00728 0.72179 0.74565 0.0
N198 N 0.6635 0.77012 0.67119 0.0
H199 H 0.75459 0.83492 0.90273 0.0
H200 H 0.6578 0.81442 0.83398 0.0
H201 H 0.63935 0.75302 0.60903 0.0
H202 H 0.63807 0.82391 0.69949 0.0
H203 H 0.04182 0.68811 0.70105 0.0
H204 H 0.05017 0.77139 0.78234 0.0
H205 H 0.95385 0.56098 0.67846 0.0
H206 H 0.85301 0.52715 0.6175 0.0
loop_
_geom_bond_atom_site_label_1
_geom_bond_atom_site_label_2
_geom_bond_distance
_geom_bond_site_symmetry_2
_ccdc_geom_bond_type
C0 O12 1.241 . S
C0 O13 1.280 . S
C1 O14 1.277 . S
C1 O15 1.245 . S
C2 O26 1.247 . S
C2 O28 1.289 . S
Mg3 O4 1.926 . S
Mg3 O13 1.984 . S
Mg3 O15 1.988 1_554 S
Mg3 O16 2.061 1_655 S
O4 Mg3 1.926 . S
O4 Mg5 1.985 1_554 S
O4 Mg6 1.917 1_655 S
Mg5 O4 1.985 1_556 S
Mg5 O12 2.037 1_556 S
Mg5 O14 2.048 . S
Mg5 O20 2.032 1_546 S
Mg5 O28 2.242 1_545 S
Mg6 O4 1.917 1_455 S
Mg6 O7 1.917 1_544 S
Mg6 O17 2.106 . S
Mg6 O19 2.079 1_445 S
Mg6 O28 2.106 1_444 S
Mg6 O29 2.079 1_554 S
O7 Mg6 1.917 1_566 S
O7 Mg8 1.926 . S
O7 Mg9 1.984 1_556 S
Mg8 O7 1.926 . S
Mg8 O22 1.984 . S
Mg8 O25 1.988 1_556 S
Mg8 O26 2.061 1_455 S
Mg9 O7 1.984 1_554 S
Mg9 O17 2.244 1_565 S
Mg9 O21 2.035 1_554 S
Mg9 O23 2.050 . S
Mg9 O30 2.030 1_564 S
C10 O16 1.247 . S
C10 O17 1.289 . S
C11 O29 1.245 . S
C11 O30 1.274 . S
O12 C0 1.241 . S
O12 Mg5 2.037 1_554 S
O13 C0 1.280 . S
O13 Mg3 1.984 . S
O14 C1 1.277 . S
O14 Mg5 2.048 . S
O15 C1 1.245 . S
O15 Mg3 1.988 1_556 S
O16 Mg3 2.061 1_455 S
O16 C10 1.247 . S
O17 Mg6 2.106 . S
O17 Mg9 2.244 1_545 S
O17 C10 1.289 . S
C18 O19 1.245 . S
C18 O20 1.274 . S
O19 Mg6 2.079 1_665 S
O19 C18 1.245 . S
O20 Mg5 2.032 1_564 S
O20 C18 1.274 . S
O21 Mg9 2.035 1_556 S
O21 C24 1.241 . S
O22 Mg8 1.984 . S
O22 C24 1.280 . S
O23 Mg9 2.050 . S
O23 C27 1.277 . S
C24 O21 1.241 . S
C24 O22 1.280 . S
O25 Mg8 1.988 1_554 S
O25 C27 1.245 . S
O26 C2 1.247 . S
O26 Mg8 2.061 1_655 S
C27 O23 1.277 . S
C27 O25 1.245 . S
O28 C2 1.289 . S
O28 Mg5 2.242 1_565 S
O28 Mg6 2.106 1_666 S
O29 Mg6 2.079 1_556 S
O29 C11 1.245 . S
O30 Mg9 2.030 1_546 S
O30 C11 1.274 . S
Fe31 O32 1.886 . S
Fe31 O35 1.715 . S
Fe31 O40 2.077 . S
Fe31 O45 1.935 . S
Fe31 O51 2.077 . S
Fe31 O60 1.935 . S
O32 Fe31 1.886 . S
O32 Fe34 1.715 . S
Fe33 O35 1.886 . S
Fe33 O36 1.715 . S
Fe33 O43 1.935 . S
Fe33 O44 2.077 . S
Fe33 O50 1.935 . S
Fe33 O59 2.077 . S
Fe34 O32 1.715 . S
Fe34 O37 1.886 . S
Fe34 O41 1.935 . S
Fe34 O46 2.077 . S
Fe34 O52 1.935 . S
Fe34 O56 2.077 . S
O35 Fe31 1.715 . S
O35 Fe33 1.886 . S
O36 Fe33 1.715 . S
O36 Fe38 1.886 . S
O37 Fe34 1.886 . S
O37 Fe38 1.715 . S
Fe38 O36 1.886 . S
Fe38 O37 1.715 . S
Fe38 O42 2.077 . S
Fe38 O47 1.935 . S
Fe38 O49 2.077 . S
Fe38 O57 1.935 . S
C39 O51 1.381 . S
C39 O52 1.421 . S
O40 Fe31 2.077 . S
O40 C53 1.381 . S
O41 Fe34 1.935 . S
O41 C53 1.421 . S
O42 Fe38 2.077 . S
O42 C58 1.381 . S
O43 Fe33 1.935 . S
O43 C58 1.421 . S
O44 Fe33 2.077 . S
O44 C48 1.381 . S
O45 Fe31 1.935 . S
O45 C48 1.421 . S
O46 Fe34 2.077 . S
O46 C54 1.381 . S
O47 Fe38 1.935 . S
O47 C54 1.421 . S
C48 O44 1.381 . S
C48 O45 1.421 . S
O49 Fe38 2.077 . S
O49 C61 1.381 . S
O50 Fe33 1.935 . S
O50 C61 1.421 . S
O51 Fe31 2.077 . S
O51 C39 1.381 . S
O52 Fe34 1.935 . S
O52 C39 1.421 . S
C53 O40 1.381 . S
C53 O41 1.421 . S
C54 O46 1.381 . S
C54 O47 1.421 . S
C55 O56 1.381 . S
C55 O57 1.421 . S
O56 Fe34 2.077 . S
O56 C55 1.381 . S
O57 Fe38 1.935 . S
O57 C55 1.421 . S
C58 O42 1.381 . S
C58 O43 1.421 . S
O59 Fe33 2.077 . S
O59 C62 1.381 . S
O60 Fe31 1.935 . S
O60 C62 1.421 . S
C61 O49 1.381 . S
C61 O50 1.421 . S
C62 O59 1.381 . S
C62 O60 1.421 . S
C63 C64 1.363 . S
C63 C69 1.379 . S
C63 N71 1.356 . S
C64 C63 1.363 . S
C64 C70 1.363 . S
C65 C66 1.363 . S
C65 C70 1.379 . S
C65 N72 1.356 . S
C66 C65 1.363 . S
C66 C69 1.363 . S
N67 C69 1.356 . S
N67 H79 0.984 . S
N67 H80 0.985 . S
N68 C70 1.356 . S
N68 H73 0.984 . S
N68 H74 0.985 . S
C69 C63 1.379 . S
C69 C66 1.363 . S
C69 N67 1.356 . S
C70 C64 1.363 . S
C70 C65 1.379 . S
C70 N68 1.356 . S
N71 C63 1.356 . S
N71 H77 0.985 1_545 S
N71 H78 0.984 . S
N72 C65 1.356 . S
N72 H75 0.984 . S
N72 H76 0.985 . S
H73 N68 0.984 . S
H74 N68 0.985 . S
H75 N72 0.984 . S
H76 N72 0.985 . S
H77 N71 0.985 1_565 S
H78 N71 0.984 . S
H79 N67 0.984 . S
H80 N67 0.985 . S
C81 C82 1.363 . S
C81 C87 1.379 . S
C81 N89 1.356 . S
C82 C81 1.363 . S
C82 C88 1.363 . S
C83 C84 1.363 . S
C83 C88 1.379 . S
C83 N90 1.356 . S
C84 C83 1.363 . S
C84 C87 1.363 . S
N85 C87 1.356 . S
N85 H97 0.984 . S
N85 H98 0.985 . S
N86 C88 1.356 . S
N86 H91 0.984 . S
N86 H92 0.985 . S
C87 C81 1.379 . S
C87 C84 1.363 . S
C87 N85 1.356 . S
C88 C82 1.363 . S
C88 C83 1.379 . S
C88 N86 1.356 . S
N89 C81 1.356 . S
N89 H95 0.984 . S
N89 H96 0.984 . S
N90 C83 1.356 . S
N90 H93 0.984 . S
N90 H94 0.985 . S
H91 N86 0.984 . S
H92 N86 0.985 . S
H93 N90 0.984 . S
H94 N90 0.985 . S
H95 N89 0.984 . S
H96 N89 0.984 . S
H97 N85 0.984 . S
H98 N85 0.985 . S
C99 C100 1.363 . S
C99 C105 1.379 . S
C99 N107 1.356 . S
C100 C99 1.363 . S
C100 C106 1.363 . S
C101 C102 1.363 . S
C101 C106 1.379 . S
C101 N108 1.356 . S
C102 C101 1.363 . S
C102 C105 1.363 . S
N103 C105 1.356 . S
N103 H115 0.984 . S
N103 H116 0.985 . S
N104 C106 1.356 . S
N104 H109 0.984 . S
N104 H110 0.985 1_565 S
C105 C99 1.379 . S
C105 C102 1.363 . S
C105 N103 1.356 . S
C106 C100 1.363 . S
C106 C101 1.379 . S
C106 N104 1.356 . S
N107 C99 1.356 . S
N107 H113 0.984 . S
N107 H114 0.984 . S
N108 C101 1.356 . S
N108 H111 0.984 . S
N108 H112 0.985 . S
H109 N104 0.984 . S
H110 N104 0.985 1_545 S
H111 N108 0.984 . S
H112 N108 0.985 . S
H113 N107 0.984 . S
H114 N107 0.984 . S
H115 N103 0.984 . S
H116 N103 0.985 . S
C117 C118 1.363 . S
C117 C123 1.379 . S
C117 N125 1.356 . S
C118 C117 1.363 . S
C118 C124 1.363 . S
C119 C120 1.363 . S
C119 C124 1.379 . S
C119 N126 1.356 . S
C120 C119 1.363 . S
C120 C123 1.363 . S
N121 C123 1.356 . S
N121 H133 0.984 . S
N121 H134 0.985 . S
N122 C124 1.356 . S
N122 H127 0.984 . S
N122 H128 0.985 . S
C123 C117 1.379 . S
C123 C120 1.363 . S
C123 N121 1.356 . S
C124 C118 1.363 . S
C124 C119 1.379 . S
C124 N122 1.356 . S
N125 C117 1.356 . S
N125 H131 0.984 . S
N125 H132 0.984 . S
N126 C119 1.356 . S
N126 H129 0.984 . S
N126 H130 0.985 . S
H127 N122 0.984 . S
H128 N122 0.985 . S
H129 N126 0.984 . S
H130 N126 0.985 . S
H131 N125 0.984 . S
H132 N125 0.984 . S
H133 N121 0.984 . S
H134 N121 0.985 . S
C135 C136 1.363 . S
C135 C141 1.379 . S
C135 N143 1.356 . S
C136 C135 1.363 . S
C136 C142 1.363 . S
C137 C138 1.363 . S
C137 C142 1.379 . S
C137 N144 1.356 . S
C138 C137 1.363 . S
C138 C141 1.363 . S
N139 C141 1.356 . S
N139 H151 0.984 . S
N139 H152 0.985 . S
N140 C142 1.356 . S
N140 H145 0.984 . S
N140 H146 0.985 . S
C141 C135 1.379 . S
C141 C138 1.363 . S
C141 N139 1.356 . S
C142 C136 1.363 . S
C142 C137 1.379 . S
C142 N140 1.356 . S
N143 C135 1.356 . S
N143 H149 0.984 . S
N143 H150 0.984 . S
N144 C137 1.356 . S
N144 H147 0.984 . S
N144 H148 0.985 . S
H145 N140 0.984 . S
H146 N140 0.985 . S
H147 N144 0.984 . S
H148 N144 0.985 . S
H149 N143 0.984 . S
H150 N143 0.984 . S
H151 N139 0.984 . S
H152 N139 0.985 . S
C153 C154 1.363 . S
C153 C159 1.379 . S
C153 N161 1.356 . S
C154 C153 1.363 . S
C154 C160 1.363 . S
C155 C156 1.363 . S
C155 C160 1.379 . S
C155 N162 1.356 . S
C156 C155 1.363 . S
C156 C159 1.363 . S
N157 C159 1.356 . S
N157 H169 0.984 . S
N157 H170 0.985 . S
N158 C160 1.356 . S
N158 H163 0.984 . S
N158 H164 0.985 1_545 S
C159 C153 1.379 . S
C159 C156 1.363 . S
C159 N157 1.356 . S
C160 C154 1.363 . S
C160 C155 1.379 . S
C160 N158 1.356 . S
N161 C153 1.356 . S
N161 H167 0.984 . S
N161 H168 0.984 . S
N162 C155 1.356 . S
N162 H165 0.984 . S
N162 H166 0.985 . S
H163 N158 0.984 . S
H164 N158 0.985 1_565 S
H165 N162 0.984 . S
H166 N162 0.985 . S
H167 N161 0.984 . S
H168 N161 0.984 . S
H169 N157 0.984 . S
H170 N157 0.985 . S
C171 C172 1.363 . S
C171 C177 1.379 . S
C171 N179 1.356 . S
C172 C171 1.363 . S
C172 C178 1.363 . S
C173 C174 1.363 . S
C173 C178 1.379 . S
C173 N180 1.356 . S
C174 C173 1.363 . S
C174 C177 1.363 . S
N175 C177 1.356 . S
N175 H187 0.984 . S
N175 H188 0.985 . S
N176 C178 1.356 . S
N176 H181 0.984 . S
N176 H182 0.985 . S
C177 C171 1.379 . S
C177 C174 1.363 . S
C177 N175 1.356 . S
C178 C172 1.363 . S
C178 C173 1.379 . S
C178 N176 1.356 . S
N179 C171 1.356 . S
N179 H185 0.984 . S
N179 H186 0.984 . S
N180 C173 1.356 . S
N180 H183 0.984 . S
N180 H184 0.985 . S
H181 N176 0.984 . S
H182 N176 0.985 . S
H183 N180 0.984 . S
H184 N180 0.985 . S
H185 N179 0.984 . S
H186 N179 0.984 . S
H187 N175 0.984 . S
H188 N175 0.985 . S
C189 C190 1.363 . S
C189 C195 1.379 . S
C189 N197 1.356 . S
C190 C189 1.363 . S
C190 C196 1.363 . S
C191 C192 1.363 . S
C191 C196 1.379 . S
C191 N198 1.356 . S
C192 C191 1.363 . S
C192 C195 1.363 . S
N193 C195 1.356 . S
N193 H205 0.984 . S
N193 H206 0.985 . S
N194 C196 1.356 . S
N194 H199 0.984 . S
N194 H200 0.985 . S
C195 C189 1.379 . S
C195 C192 1.363 . S
C195 N193 1.356 . S
C196 C190 1.363 . S
C196 C191 1.379 . S
C196 N194 1.356 . S
N197 C189 1.356 . S
N197 H203 0.984 . S
N197 H204 0.984 . S
N198 C191 1.356 . S
N198 H201 0.984 . S
N198 H202 0.985 . S
H199 N194 0.984 . S
H200 N194 0.985 . S
H201 N198 0.984 . S
H202 N198 0.985 . S
H203 N197 0.984 . S
H204 N197 0.984 . S
H205 N193 0.984 . S
H206 N193 0.985 . S
C64 C10 1.268 . S
C66 C54 1.284 . S
C82 C0 1.481 . S
C84 C58 1.490 . S
C100 C18 1.510 . S
C102 C48 1.539 . S
C118 C27 1.552 . S
C120 C53 1.540 . S
C136 C24 1.481 . S
C138 C39 1.493 . S
C156 C55 1.539 . S
C154 C11 1.510 . S
C172 C1 1.552 . S
C174 C61 1.542 . S
C192 C62 1.286 . S
C190 C2 1.270 . S
