# Generated by pormake.
# Topology pts, (4,4)-cn, num edge types: 1
# Building blocks:
#     Node 0, Type 0, BuildingBlock: ESEHIV_clean_sbu_0, # of connection points: 4
#     Node 1, Type 0, BuildingBlock: ESEHIV_clean_sbu_0, # of connection points: 4
#     Node 2, Type 1, BuildingBlock: QUQFOY_clean_sbu_1, # of connection points: 4
#     Node 3, Type 1, BuildingBlock: QUQFOY_clean_sbu_1, # of connection points: 4
#     Edge 4, Type (0, 1), BuildingBlock: OJICUG_clean_linker_0, # of connection points: 2
#     Edge 5, Type (0, 1), BuildingBlock: OJICUG_clean_linker_0, # of connection points: 2
#     Edge 6, Type (0, 1), BuildingBlock: OJICUG_clean_linker_0, # of connection points: 2
#     Edge 7, Type (0, 1), BuildingBlock: OJICUG_clean_linker_0, # of connection points: 2
#     Edge 8, Type (0, 1), BuildingBlock: OJICUG_clean_linker_0, # of connection points: 2
#     Edge 9, Type (0, 1), BuildingBlock: OJICUG_clean_linker_0, # of connection points: 2
#     Edge 10, Type (0, 1), BuildingBlock: OJICUG_clean_linker_0, # of connection points: 2
#     Edge 11, Type (0, 1), BuildingBlock: OJICUG_clean_linker_0, # of connection points: 2
# Relax obj value: 0.096
# Max RMSD: 0.249
# Mean RMSD: 0.176
data_MOF--net-pts--node1-ESEHIV_clean_sbu_0--node2-QUQFOY_clean_sbu_1--edge1-OJICUG_clean_linker_0
_symmetry_space_group_name_H-M    P1
_symmetry_Int_Tables_number       1
_symmetry_cell_setting            triclinic
loop_
_symmetry_equiv_pos_as_xyz
'x, y, z'
_cell_length_a     17.967077
_cell_length_b     18.653471
_cell_length_c     28.881331
_cell_angle_alpha  95.541932
_cell_angle_beta   94.564834
_cell_angle_gamma 90.507937
loop_
_atom_site_label
_atom_site_type_symbol
_atom_site_fract_x
_atom_site_fract_y
_atom_site_fract_z
_atom_type_partial_charge
Cu0 Cu 0.57245 0.114 0.03266 0.0
N1 N 0.63896 0.05935 0.99762 0.0
N2 N 0.73085 1.04248 0.94989 0.0
C3 C 0.69435 0.09035 0.97759 0.0
C4 C 0.69734 0.97824 0.95319 0.0
C5 C 0.64051 0.98883 0.98256 0.0
O6 O 0.63519 0.17056 0.08124 0.0
C7 C 0.48576 0.13264 0.95325 0.0
O8 O 0.50358 0.06452 0.94673 0.0
H9 H 0.70635 0.14761 0.98281 0.0
H10 H 0.60117 0.94847 0.99035 0.0
N11 N 0.50383 0.06101 0.06172 0.0
N12 N 0.41173 0.04656 0.10801 0.0
C13 C 0.45002 0.09325 0.08553 0.0
C14 C 0.49935 0.99088 0.06882 0.0
C15 C 0.44237 0.98178 0.09729 0.0
C16 C 0.66084 0.13401 0.11382 0.0
O17 O 0.6409 0.06588 0.11218 0.0
H18 H 0.4405 0.15055 0.08684 0.0
H19 H 0.53685 0.94983 0.05632 0.0
O20 O 0.51207 0.16965 0.99042 0.0
H21 H 0.71063 0.92768 0.93425 0.0
H22 H 0.42707 0.9319 0.1106 0.0
Cu23 Cu 0.03557 0.63964 0.53485 0.0
N24 N 0.9773 0.5793 0.56607 0.0
N25 N 0.95324 0.49736 0.61479 0.0
C26 C 0.00156 0.52035 0.58583 0.0
C27 C 0.89594 0.54354 0.61326 0.0
C28 C 0.9109 0.59399 0.5831 0.0
O29 O 0.08726 0.58192 0.48826 0.0
C30 C 0.14211 0.74757 0.57918 0.0
O31 O 0.1668 0.75458 0.53826 0.0
H32 H 0.0564 0.49842 0.58263 0.0
H33 H 0.8783 0.641 0.57671 0.0
N34 N 0.97568 0.70162 0.50138 0.0
N35 N 0.94876 0.78804 0.4544 0.0
C36 C -0.00026 0.7622 0.485 0.0
C37 C 0.90653 0.68882 0.48048 0.0
C38 C 0.88976 0.74208 0.4514 0.0
C39 C 0.13278 0.53109 0.49384 0.0
O40 O 0.15972 0.51934 0.53597 0.0
H41 H 0.05565 0.78386 0.49213 0.0
H42 H 0.87264 0.64168 0.48384 0.0
O43 O 0.09533 0.69771 0.58365 0.0
H44 H 0.84864 0.54307 0.63423 0.0
H45 H 0.83964 0.74486 0.42827 0.0
O46 O 0.9458 0.12147 0.24925 0.0
Cd47 Cd 0.04337 0.0852 0.28046 0.0
Cd48 Cd 0.07726 0.23211 0.27249 0.0
O49 O 0.97173 0.23407 0.23816 0.0
O50 O 0.01125 0.98482 0.28869 0.0
O51 O 0.04614 0.06443 0.34816 0.0
C52 C 0.02052 1.00081 0.33313 0.0
C53 C 0.10851 0.31596 0.33649 0.0
C54 C 0.92648 0.18076 0.23405 0.0
C55 C 0.17591 0.12035 0.22715 0.0
O56 O 0.16178 0.18671 0.2361 0.0
O57 O 0.13591 0.07192 0.24177 0.0
O58 O 0.10705 0.33365 0.29432 0.0
O59 O 0.09226 0.24995 0.34239 0.0
O60 O 0.98723 0.17585 0.83736 0.0
Cd61 Cd 0.07164 0.2197 0.80442 0.0
Cd62 Cd 0.10299 0.07091 0.78326 0.0
O63 O 0.00902 0.0605 0.81976 0.0
O64 O 0.03838 0.31816 0.79196 0.0
O65 O 0.05616 0.2318 0.73589 0.0
C66 C 0.0363 0.29697 0.748 0.0
C67 C 0.12262 0.97978 0.72372 0.0
C68 C 0.97074 0.10992 0.83945 0.0
C69 C 0.22156 0.17285 0.83839 0.0
O70 O 0.20068 0.11141 0.81848 0.0
O71 O 0.17788 0.22606 0.83839 0.0
O72 O 0.12938 0.96828 0.76704 0.0
O73 O 0.103 1.04326 0.7137 0.0
C74 C 0.3033 1.01074 0.14947 0.0
C75 C 0.35383 0.0639 0.13911 0.0
H76 H 0.20764 0.98655 0.18548 0.0
C77 C 0.34665 0.13485 0.15956 0.0
H78 H 0.30672 0.95569 0.13423 0.0
C79 C 0.2896 0.1526 0.18846 0.0
C80 C 0.23839 0.09986 0.1982 0.0
H81 H 0.38529 0.17709 0.15359 0.0
H82 H 0.2857 0.20798 0.20316 0.0
C83 C 0.24633 1.02848 0.1788 0.0
C84 C 0.00724 0.38135 0.63365 0.0
C85 C 0.96829 0.44402 0.64706 0.0
H86 H 0.0585 0.28504 0.65484 0.0
C87 C 0.94953 0.45645 0.69339 0.0
H88 H 0.02219 0.37056 0.59808 0.0
C89 C 0.97141 0.40842 0.72601 0.0
C90 C 0.01139 0.34627 0.71282 0.0
H91 H 0.92041 0.50472 0.70482 0.0
H92 H 0.95737 0.42029 0.7617 0.0
C93 C 0.02794 0.33253 0.66609 0.0
C94 C 0.77306 0.21341 0.14103 0.0
C95 C 0.71971 0.16183 0.14979 0.0
H96 H 0.88181 0.26065 0.16159 0.0
C97 C 0.72977 0.12699 0.19073 0.0
H98 H 0.76665 0.24086 0.10961 0.0
C99 C 0.79504 0.1378 0.21994 0.0
C100 C 0.85176 0.18402 0.20908 0.0
H101 H 0.68907 0.08775 0.19875 0.0
H102 H 0.80284 0.10677 0.24975 0.0
C103 C 0.83889 0.22458 0.17067 0.0
C104 C 0.15356 0.87899 0.60631 0.0
C105 C 0.15117 0.80705 0.61694 0.0
H106 H 0.14474 0.99039 0.63167 0.0
C107 C 0.14453 0.7929 0.6633 0.0
H108 H 0.15742 0.89143 0.5707 0.0
C109 C 0.1377 0.84931 0.69809 0.0
C110 C 0.1358 0.92111 0.68712 0.0
H111 H 0.14199 0.73795 0.67238 0.0
H112 H 0.13095 0.83635 0.73329 0.0
C113 C 0.14525 0.93556 0.64105 0.0
C114 C 0.41783 0.12467 0.8751 0.0
C115 C 0.42802 0.15979 0.92041 0.0
H116 H 0.34455 0.10245 0.81344 0.0
C117 C 0.37529 0.21042 0.93535 0.0
H118 H 0.45805 0.08612 0.86239 0.0
C119 C 0.30969 0.22011 0.90688 0.0
C120 C 0.29651 0.17896 0.86349 0.0
H121 H 0.38179 0.23803 0.97022 0.0
H122 H 0.267 0.25515 0.92031 0.0
C123 C 0.35277 0.13396 0.84704 0.0
C124 C 0.14754 0.40351 0.46041 0.0
C125 C 0.14065 0.47689 0.45374 0.0
H126 H 0.14155 0.29462 0.42849 0.0
C127 C 0.1299 0.49686 0.40806 0.0
H128 H 0.15504 0.38647 0.49527 0.0
C129 C 0.12282 0.44449 0.36993 0.0
C130 C 0.12491 0.37089 0.37668 0.0
H131 H 0.12427 0.55301 0.40189 0.0
H132 H 0.11236 0.46176 0.33529 0.0
C133 C 0.13905 0.3509 0.42222 0.0
C134 C 0.80026 0.12856 0.90851 0.0
C135 C 0.78982 0.05825 0.92093 0.0
H136 H 0.86471 0.19972 0.87326 0.0
C137 C 0.83819 1.00415 0.90472 0.0
H138 H 0.76336 0.17146 0.91914 0.0
C139 C 0.89619 1.02036 0.87753 0.0
C140 C 0.90736 0.09111 0.86617 0.0
H141 H 0.83225 0.94955 0.91373 0.0
H142 H 0.93309 0.97773 0.86619 0.0
C143 C 0.85833 0.14479 0.88174 0.0
C144 C 0.00756 0.90442 0.44222 0.0
C145 C 0.96195 0.84441 0.4251 0.0
H146 H 0.06146 1.00148 0.42674 0.0
C147 C 0.9343 0.83762 0.37802 0.0
H148 H 0.02943 0.91103 0.47843 0.0
C149 C 0.95357 0.8885 0.34837 0.0
C150 C 0.0 0.94798 0.36526 0.0
H151 H 0.8999 0.79159 0.3637 0.0
H152 H 0.93216 0.88103 0.31207 0.0
C153 C 0.02588 0.95609 0.41268 0.0
loop_
_geom_bond_atom_site_label_1
_geom_bond_atom_site_label_2
_geom_bond_distance
_geom_bond_site_symmetry_2
_ccdc_geom_bond_type
Cu0 N1 1.999 1_554 S
Cu0 O6 1.974 . S
Cu0 N11 1.985 . S
Cu0 O20 1.959 1_554 S
N1 Cu0 1.999 1_556 S
N1 C3 1.263 . S
N1 C5 1.389 . S
N2 C3 1.358 . S
N2 C4 1.400 . S
C3 N1 1.263 . S
C3 N2 1.358 . S
C3 H9 0.930 . S
C4 N2 1.400 . S
C4 C5 1.351 . S
C4 H21 0.930 . S
C5 N1 1.389 . S
C5 C4 1.351 . S
C5 H10 0.930 . S
O6 Cu0 1.974 . S
O6 C16 1.282 . S
C7 O8 1.261 . S
C7 O20 1.251 . S
O8 C7 1.261 . S
H9 C3 0.930 . S
H10 C5 0.930 . S
N11 Cu0 1.985 . S
N11 C13 1.335 . S
N11 C14 1.390 . S
N12 C13 1.345 . S
N12 C15 1.336 . S
C13 N11 1.335 . S
C13 N12 1.345 . S
C13 H18 0.930 . S
C14 N11 1.390 . S
C14 C15 1.346 . S
C14 H19 0.930 . S
C15 N12 1.336 . S
C15 C14 1.346 . S
C15 H22 0.929 . S
C16 O6 1.282 . S
C16 O17 1.216 . S
O17 C16 1.216 . S
H18 C13 0.930 . S
H19 C14 0.930 . S
O20 Cu0 1.959 1_556 S
O20 C7 1.251 . S
H21 C4 0.930 . S
H22 C15 0.929 . S
Cu23 N24 1.999 . S
Cu23 O29 1.974 . S
Cu23 N34 1.985 . S
Cu23 O43 1.959 . S
N24 Cu23 1.999 . S
N24 C26 1.263 . S
N24 C28 1.389 1_455 S
N25 C26 1.358 . S
N25 C27 1.400 1_455 S
C26 N24 1.263 . S
C26 N25 1.358 . S
C26 H32 0.930 . S
C27 N25 1.400 1_655 S
C27 C28 1.351 . S
C27 H44 0.930 . S
C28 N24 1.389 1_655 S
C28 C27 1.351 . S
C28 H33 0.930 . S
O29 Cu23 1.974 . S
O29 C39 1.282 . S
C30 O31 1.261 . S
C30 O43 1.251 . S
O31 C30 1.261 . S
H32 C26 0.930 . S
H33 C28 0.930 . S
N34 Cu23 1.985 . S
N34 C36 1.335 . S
N34 C37 1.390 . S
N35 C36 1.345 . S
N35 C38 1.336 . S
C36 N34 1.335 . S
C36 N35 1.345 . S
C36 H41 0.930 1_455 S
C37 N34 1.390 . S
C37 C38 1.346 . S
C37 H42 0.930 . S
C38 N35 1.336 . S
C38 C37 1.346 . S
C38 H45 0.929 . S
C39 O29 1.282 . S
C39 O40 1.216 . S
O40 C39 1.216 . S
H41 C36 0.930 1_655 S
H42 C37 0.930 . S
O43 Cu23 1.959 . S
O43 C30 1.251 . S
H44 C27 0.930 . S
H45 C38 0.929 . S
O46 Cd47 2.223 . S
O46 C54 1.315 1_465 S
Cd47 O46 2.223 . S
Cd47 O50 2.297 . S
Cd47 O51 2.439 1_565 S
Cd47 O57 2.240 1_565 S
Cd48 O49 2.240 1_455 S
Cd48 O56 2.223 . S
Cd48 O58 2.297 . S
Cd48 O59 2.439 . S
O49 Cd48 2.240 1_655 S
O49 C54 1.279 . S
O50 Cd47 2.297 . S
O50 C52 1.247 . S
O51 Cd47 2.439 1_545 S
O51 C52 1.208 1_545 S
C52 O50 1.247 . S
C52 O51 1.208 1_565 S
C53 O58 1.247 . S
C53 O59 1.208 . S
C54 O46 1.315 1_645 S
C54 O49 1.279 . S
C55 O56 1.315 . S
C55 O57 1.279 . S
O56 Cd48 2.223 . S
O56 C55 1.315 . S
O57 Cd47 2.240 1_545 S
O57 C55 1.279 . S
O58 Cd48 2.297 . S
O58 C53 1.247 . S
O59 Cd48 2.439 . S
O59 C53 1.208 . S
O60 Cd61 2.223 . S
O60 C68 1.315 . S
Cd61 O60 2.223 . S
Cd61 O64 2.297 . S
Cd61 O65 2.439 . S
Cd61 O71 2.240 . S
Cd62 O63 2.240 1_565 S
Cd62 O70 2.223 . S
Cd62 O72 2.297 . S
Cd62 O73 2.439 . S
O63 Cd62 2.240 1_545 S
O63 C68 1.279 . S
O64 Cd61 2.297 . S
O64 C66 1.247 . S
O65 Cd61 2.439 . S
O65 C66 1.208 . S
C66 O64 1.247 . S
C66 O65 1.208 . S
C67 O72 1.247 . S
C67 O73 1.208 . S
C68 O60 1.315 . S
C68 O63 1.279 . S
C69 O70 1.315 1_545 S
C69 O71 1.279 . S
O70 Cd62 2.223 . S
O70 C69 1.315 1_565 S
O71 Cd61 2.240 . S
O71 C69 1.279 . S
O72 Cd62 2.297 . S
O72 C67 1.247 . S
O73 Cd62 2.439 . S
O73 C67 1.208 . S
C74 C75 1.387 . S
C74 H78 0.950 . S
C74 C83 1.390 . S
C75 C74 1.387 . S
C75 C77 1.387 . S
H76 C83 0.950 . S
C77 C75 1.387 . S
C77 C79 1.390 . S
C77 H81 0.950 . S
H78 C74 0.950 . S
C79 C77 1.390 . S
C79 C80 1.387 . S
C79 H82 0.950 . S
C80 C79 1.387 . S
C80 C83 1.387 . S
H81 C77 0.950 . S
H82 C79 0.950 . S
C83 C74 1.390 . S
C83 H76 0.950 . S
C83 C80 1.387 . S
C84 C85 1.387 . S
C84 H88 0.950 1_455 S
C84 C93 1.391 . S
C85 C84 1.387 . S
C85 C87 1.387 . S
H86 C93 0.945 1_655 S
C87 C85 1.387 . S
C87 C89 1.390 . S
C87 H91 0.950 . S
H88 C84 0.950 1_655 S
C89 C87 1.390 . S
C89 C90 1.387 . S
C89 H92 0.950 . S
C90 C89 1.387 . S
C90 C93 1.391 . S
H91 C87 0.950 . S
H92 C89 0.950 . S
C93 C84 1.391 . S
C93 H86 0.945 1_455 S
C93 C90 1.391 . S
C94 C95 1.387 . S
C94 H98 0.950 . S
C94 C103 1.390 . S
C95 C94 1.387 . S
C95 C97 1.387 . S
H96 C103 0.950 . S
C97 C95 1.387 . S
C97 C99 1.390 . S
C97 H101 0.950 1_545 S
H98 C94 0.950 . S
C99 C97 1.390 . S
C99 C100 1.387 . S
C99 H102 0.950 1_545 S
C100 C99 1.387 . S
C100 C103 1.387 . S
H101 C97 0.950 1_565 S
H102 C99 0.950 1_565 S
C103 C94 1.390 . S
C103 H96 0.950 . S
C103 C100 1.387 . S
C104 C105 1.387 . S
C104 H108 0.950 . S
C104 C113 1.390 . S
C105 C104 1.387 . S
C105 C107 1.387 . S
H106 C113 0.950 . S
C107 C105 1.387 . S
C107 C109 1.390 . S
C107 H111 0.950 1_455 S
H108 C104 0.950 . S
C109 C107 1.390 . S
C109 C110 1.387 . S
C109 H112 0.950 . S
C110 C109 1.387 . S
C110 C113 1.387 . S
H111 C107 0.950 1_655 S
H112 C109 0.950 . S
C113 C104 1.390 . S
C113 H106 0.950 . S
C113 C110 1.387 . S
C114 C115 1.387 . S
C114 H118 0.950 1_545 S
C114 C123 1.390 1_545 S
C115 C114 1.387 . S
C115 C117 1.387 . S
H116 C123 0.950 . S
C117 C115 1.387 . S
C117 C119 1.390 . S
C117 H121 0.950 . S
H118 C114 0.950 1_565 S
C119 C117 1.390 . S
C119 C120 1.387 . S
C119 H122 0.950 . S
C120 C119 1.387 . S
C120 C123 1.387 1_545 S
H121 C117 0.950 . S
H122 C119 0.950 . S
C123 C114 1.390 1_565 S
C123 H116 0.950 . S
C123 C120 1.387 1_565 S
C124 C125 1.387 . S
C124 H128 0.950 . S
C124 C133 1.390 . S
C125 C124 1.387 . S
C125 C127 1.387 . S
H126 C133 0.950 . S
C127 C125 1.387 . S
C127 C129 1.390 . S
C127 H131 0.950 1_455 S
H128 C124 0.950 . S
C129 C127 1.390 . S
C129 C130 1.387 . S
C129 H132 0.950 1_455 S
C130 C129 1.387 . S
C130 C133 1.387 . S
H131 C127 0.950 1_655 S
H132 C129 0.950 1_655 S
C133 C124 1.390 . S
C133 H126 0.950 . S
C133 C130 1.387 . S
C134 C135 1.387 . S
C134 H138 0.950 . S
C134 C143 1.390 . S
C135 C134 1.387 . S
C135 C137 1.387 . S
H136 C143 0.950 . S
C137 C135 1.387 . S
C137 C139 1.390 . S
C137 H141 0.950 . S
H138 C134 0.950 . S
C139 C137 1.390 . S
C139 C140 1.387 . S
C139 H142 0.950 . S
C140 C139 1.387 . S
C140 C143 1.387 . S
H141 C137 0.950 . S
H142 C139 0.950 . S
C143 C134 1.390 . S
C143 H136 0.950 . S
C143 C140 1.387 . S
C144 C145 1.387 . S
C144 H148 0.950 . S
C144 C153 1.390 . S
C145 C144 1.387 . S
C145 C147 1.387 1_455 S
H146 C153 0.950 . S
C147 C145 1.387 1_655 S
C147 C149 1.390 . S
C147 H151 0.950 . S
H148 C144 0.950 . S
C149 C147 1.390 . S
C149 C150 1.387 1_655 S
C149 H152 0.950 . S
C150 C149 1.387 1_455 S
C150 C153 1.387 . S
H151 C147 0.950 . S
H152 C149 0.950 . S
C153 C144 1.390 . S
C153 H146 0.950 . S
C153 C150 1.387 . S
C80 C55 1.553 . S
C75 N12 1.514 . S
C90 C66 1.518 . S
C85 N25 1.537 . S
C100 C54 1.571 . S
C95 C16 1.550 . S
C110 C67 1.532 . S
C105 C30 1.606 . S
C120 C69 1.609 . S
C115 C7 1.604 . S
C130 C53 1.488 . S
C125 C39 1.543 . S
C140 C68 1.584 1_655 S
C135 N2 1.545 . S
C145 N35 1.513 . S
C150 C52 1.494 . S
