# Generated by pormake.
# Topology bcu-b, (8,8)-cn, num edge types: 1
# Building blocks:
#     Node 0, Type 0, BuildingBlock: TAGTUT_clean_sbu_3, # of connection points: 8
#     Node 1, Type 1, BuildingBlock: GIZVER_clean_sbu_0, # of connection points: 8
#     Edge 2, Type (0, 1), BuildingBlock: KIFKEQ_clean_linker_1, # of connection points: 2
#     Edge 3, Type (0, 1), BuildingBlock: KIFKEQ_clean_linker_1, # of connection points: 2
#     Edge 4, Type (0, 1), BuildingBlock: KIFKEQ_clean_linker_1, # of connection points: 2
#     Edge 5, Type (0, 1), BuildingBlock: KIFKEQ_clean_linker_1, # of connection points: 2
#     Edge 6, Type (0, 1), BuildingBlock: KIFKEQ_clean_linker_1, # of connection points: 2
#     Edge 7, Type (0, 1), BuildingBlock: KIFKEQ_clean_linker_1, # of connection points: 2
#     Edge 8, Type (0, 1), BuildingBlock: KIFKEQ_clean_linker_1, # of connection points: 2
#     Edge 9, Type (0, 1), BuildingBlock: KIFKEQ_clean_linker_1, # of connection points: 2
# Relax obj value: 0.089
# Max RMSD: 0.158
# Mean RMSD: 0.156
data_MOF--net-bcu-b--node1-TAGTUT_clean_sbu_3--node2-GIZVER_clean_sbu_0--edge1-KIFKEQ_clean_linker_1
_symmetry_space_group_name_H-M    P1
_symmetry_Int_Tables_number       1
_symmetry_cell_setting            triclinic
loop_
_symmetry_equiv_pos_as_xyz
'x, y, z'
_cell_length_a     20.824785
_cell_length_b     22.888222
_cell_length_c     18.205939
_cell_angle_alpha  89.51702
_cell_angle_beta   90.489053
_cell_angle_gamma 107.98189
loop_
_atom_site_label
_atom_site_type_symbol
_atom_site_fract_x
_atom_site_fract_y
_atom_site_fract_z
_atom_type_partial_charge
C0 C 0.12483 0.11461 0.08854 0.0
C1 C 0.19769 0.91041 0.07268 0.0
C2 C 0.12258 0.90194 0.85376 0.0
Mg3 Mg 1.00276 0.1475 -0.00027 0.0
Mg4 Mg 0.86334 0.0349 0.96926 0.0
O5 O 0.95672 0.06636 0.95255 0.0
Mg6 Mg 0.01476 0.01665 -0.01311 0.0
O7 O 0.07913 0.97275 0.02161 0.0
Mg8 Mg 0.16576 0.0225 0.9731 0.0
Mg9 Mg 0.05608 0.88923 0.00108 0.0
C10 C 0.89391 0.92075 0.89439 0.0
O11 O 0.93329 0.95325 0.0654 0.0
O12 O 0.93375 0.18399 0.92078 0.0
O13 O 0.95606 0.86435 0.04503 0.0
O14 O 0.92409 0.13631 0.09035 0.0
O15 O 0.84074 0.1027 0.90163 0.0
O16 O 0.83531 0.05288 0.07964 0.0
O17 O 0.09932 0.07017 0.90865 0.0
O18 O 0.08368 0.1621 0.91235 0.0
C19 C 0.11562 0.1266 0.88904 0.0
C20 C 0.87565 0.15881 0.89034 0.0
O21 O 0.95842 0.94362 0.90233 0.0
O22 O 0.21873 0.96575 0.04717 0.0
O23 O 0.85134 0.94441 0.92298 0.0
O24 O 0.1604 0.95334 0.87838 0.0
O25 O 0.13786 0.87442 0.06102 0.0
O26 O 0.07038 0.87091 0.88868 0.0
O27 O 0.06273 0.09404 0.0688 0.0
O28 O 0.16976 0.09253 0.06348 0.0
C29 C 0.86771 0.10158 0.11408 0.0
C30 C 0.91818 0.89417 0.07052 0.0
Co31 Co 0.57457 0.40097 0.43753 0.0
Co32 Co 0.60507 0.45924 0.5602 0.0
Co33 Co 0.51205 0.51853 0.48419 0.0
O34 O 0.58751 0.48416 0.46844 0.0
H35 H 0.62734 0.51358 0.44805 0.0
O36 O 0.43681 0.55349 0.4985 0.0
Co37 Co 0.44941 0.63446 0.53618 0.0
Co38 Co 0.41862 0.58406 0.40921 0.0
H39 H 0.39663 0.52353 0.51719 0.0
O40 O 0.68888 0.46014 0.57998 0.0
O41 O 0.60094 0.37987 0.53934 0.0
O42 O 0.54407 0.45394 0.64092 0.0
O43 O 0.46494 0.45553 0.56041 0.0
O44 O 0.56617 0.57271 0.56138 0.0
O45 O 0.45135 0.70647 0.57411 0.0
O46 O 0.36147 0.62267 0.55629 0.0
O47 O 0.54547 0.65738 0.52347 0.0
O48 O 0.55845 0.58199 0.40823 0.0
O49 O 0.47857 0.58635 0.32908 0.0
O50 O 0.4365 0.66539 0.43589 0.0
O51 O 0.33951 0.60072 0.39001 0.0
C52 C 0.63281 0.35149 0.39386 0.0
C53 C 0.4431 0.40411 0.41666 0.0
C54 C 0.48243 0.43992 0.62298 0.0
C55 C 0.66192 0.40167 0.56792 0.0
C56 C 0.38666 0.6791 0.57922 0.0
C57 C 0.58177 0.63095 0.55921 0.0
C58 C 0.54029 0.59864 0.34638 0.0
C59 C 0.3778 0.65615 0.4042 0.0
O60 O 0.56907 0.32623 0.40734 0.0
O61 O 0.66087 0.40987 0.40822 0.0
O62 O 0.45846 0.46232 0.40874 0.0
O63 O 0.47945 0.38031 0.45703 0.0
H64 H 0.10417 0.1094 0.2355 0.0
H65 H 0.20106 0.23057 0.05918 0.0
H66 H 0.16993 0.18384 0.32553 0.0
H67 H 0.26647 0.30493 0.14814 0.0
H68 H 0.38937 0.27864 0.42377 0.0
H69 H 0.29554 0.21369 0.35132 0.0
H70 H 0.26492 0.37508 0.25198 0.0
H71 H 0.3586 0.44008 0.32381 0.0
C72 C 0.13758 0.15309 0.21637 0.0
C73 C 0.14746 0.16501 0.14097 0.0
C74 C 0.17569 0.19523 0.26758 0.0
C75 C 0.22365 0.24993 0.24379 0.0
C76 C 0.22948 0.26352 0.16821 0.0
C77 C 0.1921 0.22113 0.11725 0.0
C78 C 0.36207 0.3003 0.38724 0.0
C79 C 0.38213 0.36449 0.37888 0.0
C80 C 0.30793 0.26312 0.34623 0.0
C81 C 0.27308 0.2894 0.29586 0.0
C82 C 0.29122 0.35361 0.28997 0.0
C83 C 0.34497 0.39075 0.33118 0.0
H84 H 0.73285 0.07174 0.14594 0.0
H85 H 0.92867 0.18943 0.21474 0.0
H86 H 0.679 0.13055 0.22112 0.0
H87 H 0.87497 0.2473 0.29151 0.0
H88 H 0.75845 0.38727 0.32937 0.0
H89 H 0.81652 0.32108 0.27301 0.0
H90 H 0.65378 0.16083 0.3384 0.0
H91 H 0.59532 0.22669 0.39215 0.0
C92 C 0.76443 0.10882 0.17904 0.0
C93 C 0.8351 0.12595 0.17384 0.0
C94 C 0.73355 0.1429 0.22215 0.0
C95 C 0.77255 0.19466 0.26166 0.0
C96 C 0.84322 0.20891 0.26045 0.0
C97 C 0.87404 0.17512 0.21707 0.0
C98 C 0.73544 0.33792 0.332 0.0
C99 C 0.67186 0.31246 0.36438 0.0
C100 C 0.76885 0.29978 0.30008 0.0
C101 C 0.73971 0.23527 0.30047 0.0
C102 C 0.67724 0.2101 0.33541 0.0
C103 C 0.64377 0.24808 0.3666 0.0
H104 H 0.83354 0.9295 0.16561 0.0
H105 H 0.85791 0.77252 0.05176 0.0
H106 H 0.73579 0.86017 0.23122 0.0
H107 H 0.76309 0.70509 0.11757 0.0
H108 H 0.6749 0.61362 0.34148 0.0
H109 H 0.76108 0.69159 0.27309 0.0
H110 H 0.60847 0.76416 0.18424 0.0
H111 H 0.52146 0.68541 0.25167 0.0
C112 C 0.81784 0.88077 0.15403 0.0
C113 C 0.85456 0.85645 0.10491 0.0
C114 C 0.76219 0.84132 0.19137 0.0
C115 C 0.74324 0.77753 0.17983 0.0
C116 C 0.7776 0.75402 0.128 0.0
C117 C 0.83217 0.79291 0.09069 0.0
C118 C 0.65962 0.64588 0.30701 0.0
C119 C 0.59144 0.64278 0.30093 0.0
C120 C 0.70885 0.69065 0.26849 0.0
C121 C 0.69102 0.73388 0.22436 0.0
C122 C 0.62315 0.73154 0.21868 0.0
C123 C 0.57355 0.68597 0.25629 0.0
H124 H 0.28948 0.9689 0.17931 0.0
H125 H 0.20287 0.79474 0.07116 0.0
H126 H 0.34036 0.91771 0.27292 0.0
H127 H 0.25289 0.74455 0.16322 0.0
H128 H 0.2505 0.65927 0.38012 0.0
H129 H 0.21701 0.73283 0.30363 0.0
H130 H 0.42552 0.84335 0.28314 0.0
H131 H 0.45947 0.76949 0.36088 0.0
C132 C 0.28299 0.92028 0.17445 0.0
C133 C 0.24165 0.88547 0.11879 0.0
C134 C 0.3116 0.89109 0.22802 0.0
C135 C 0.29878 0.8271 0.226 0.0
C136 C 0.26203 0.7937 0.16693 0.0
C137 C 0.23376 0.82249 0.11406 0.0
C138 C 0.2891 0.70003 0.36097 0.0
C139 C 0.35757 0.70816 0.37512 0.0
C140 C 0.26997 0.74206 0.31723 0.0
C141 C 0.31895 0.79283 0.28643 0.0
C142 C 0.38699 0.8044 0.30625 0.0
C143 C 0.40626 0.76222 0.35067 0.0
H144 H 0.07897 0.78112 0.81335 0.0
H145 H 0.22389 0.95564 0.75677 0.0
H146 H 0.13831 0.7287 0.73657 0.0
H147 H 0.28177 0.90335 0.6772 0.0
H148 H 0.42502 0.78836 0.65109 0.0
H149 H 0.35382 0.84378 0.70218 0.0
H150 H 0.17646 0.70403 0.62201 0.0
H151 H 0.24834 0.64724 0.57281 0.0
C152 C 0.12221 0.8086 0.78258 0.0
C153 C 0.14733 0.8726 0.79233 0.0
C154 C 0.15634 0.77839 0.73825 0.0
C155 C 0.21595 0.81153 0.70186 0.0
C156 C 0.23728 0.87609 0.70622 0.0
C157 C 0.20364 0.90623 0.75126 0.0
C158 C 0.37085 0.76946 0.64404 0.0
C159 C 0.34237 0.71308 0.60844 0.0
C160 C 0.32985 0.80168 0.67273 0.0
C161 C 0.25912 0.7788 0.66597 0.0
C162 C 0.23062 0.72281 0.62904 0.0
C163 C 0.2718 0.69022 0.60078 0.0
H164 H 0.13124 0.13696 0.74153 0.0
H165 H 0.23726 0.18637 0.94712 0.0
H166 H 0.22471 0.21064 0.67701 0.0
H167 H 0.32976 0.26167 0.88399 0.0
H168 H 0.50427 0.37027 0.7381 0.0
H169 H 0.42141 0.28506 0.79923 0.0
H170 H 0.26242 0.32046 0.6696 0.0
H171 H 0.34535 0.40432 0.60703 0.0
C172 C 0.17572 0.16229 0.77236 0.0
C173 C 0.17802 0.1557 0.84876 0.0
C174 C 0.22865 0.20529 0.73587 0.0
C175 C 0.28425 0.24305 0.77548 0.0
C176 C 0.2881 0.23329 0.85158 0.0
C177 C 0.23533 0.19006 0.88784 0.0
C178 C 0.45152 0.36038 0.72329 0.0
C179 C 0.43147 0.39427 0.6677 0.0
C180 C 0.404 0.31131 0.7582 0.0
C181 C 0.33527 0.29518 0.73864 0.0
C182 C 0.3151 0.33042 0.6847 0.0
C183 C 0.36258 0.37917 0.64952 0.0
H184 H 0.74375 0.14551 0.86338 0.0
H185 H 0.94523 0.24908 0.79587 0.0
H186 H 0.69645 0.19843 0.77177 0.0
H187 H 0.89817 0.29997 0.70078 0.0
H188 H 0.79063 0.43539 0.61934 0.0
H189 H 0.84466 0.37411 0.68944 0.0
H190 H 0.67513 0.21218 0.64701 0.0
H191 H 0.61853 0.27531 0.57944 0.0
C192 C 0.77791 0.1795 0.82842 0.0
C193 C 0.84813 0.19392 0.83728 0.0
C194 C 0.7508 0.2092 0.77501 0.0
C195 C 0.79328 0.25328 0.72816 0.0
C196 C 0.86377 0.26702 0.73654 0.0
C197 C 0.89091 0.23811 0.79113 0.0
C198 C 0.76481 0.38656 0.62408 0.0
C199 C 0.69929 0.3605 0.5955 0.0
C200 C 0.79643 0.35108 0.66392 0.0
C201 C 0.76397 0.2882 0.67531 0.0
C202 C 0.7008 0.26092 0.64116 0.0
C203 C 0.66857 0.29685 0.60177 0.0
H204 H 0.78913 0.82004 0.92538 0.0
H205 H 0.9335 0.90278 0.75651 0.0
H206 H 0.72543 0.74261 0.83837 0.0
H207 H 0.86828 0.82604 0.66828 0.0
H208 H 0.64985 0.75359 0.5446 0.0
H209 H 0.74068 0.81581 0.62342 0.0
H210 H 0.73713 0.65434 0.74937 0.0
H211 H 0.64739 0.5917 0.67009 0.0
C212 C 0.80803 0.82049 0.87002 0.0
C213 C 0.86589 0.86704 0.84726 0.0
C214 C 0.77175 0.77629 0.82037 0.0
C215 C 0.79188 0.77884 0.74672 0.0
C216 C 0.85189 0.8234 0.72486 0.0
C217 C 0.88927 0.86683 0.77523 0.0
C218 C 0.6692 0.73122 0.58834 0.0
C219 C 0.64103 0.66791 0.60159 0.0
C220 C 0.72151 0.7667 0.63293 0.0
C221 C 0.74572 0.73963 0.69216 0.0
C222 C 0.71929 0.67609 0.70387 0.0
C223 C 0.66792 0.64042 0.65853 0.0
loop_
_geom_bond_atom_site_label_1
_geom_bond_atom_site_label_2
_geom_bond_distance
_geom_bond_site_symmetry_2
_ccdc_geom_bond_type
C0 O27 1.312 . S
C0 O28 1.208 . S
C1 O22 1.331 . S
C1 O25 1.244 . S
C2 O24 1.264 . S
C2 O26 1.273 . S
Mg3 O5 1.936 . S
Mg3 O12 2.081 . S
Mg3 O14 2.023 1_556 S
Mg3 O18 2.031 1_655 S
Mg3 O27 2.291 1_656 S
Mg4 O5 1.963 . S
Mg4 O15 1.942 . S
Mg4 O16 1.955 1_556 S
Mg4 O23 1.986 1_545 S
O5 Mg3 1.936 . S
O5 Mg4 1.963 . S
O5 Mg6 1.913 1_556 S
Mg6 O5 1.913 1_554 S
Mg6 O7 1.917 1_645 S
Mg6 O11 2.019 1_545 S
Mg6 O17 2.109 1_654 S
Mg6 O21 2.007 1_544 S
Mg6 O27 2.119 1_655 S
O7 Mg6 1.917 1_465 S
O7 Mg8 1.936 1_565 S
O7 Mg9 1.963 . S
Mg8 O7 1.936 1_545 S
Mg8 O17 2.291 1_554 S
Mg8 O22 2.081 1_545 S
Mg8 O24 2.023 1_544 S
Mg8 O28 2.031 . S
Mg9 O7 1.963 . S
Mg9 O13 1.986 1_455 S
Mg9 O25 1.942 . S
Mg9 O26 1.955 1_554 S
C10 O21 1.191 . S
C10 O23 1.307 . S
O11 Mg6 2.019 1_565 S
O11 C30 1.191 . S
O12 Mg3 2.081 . S
O12 C20 1.331 . S
O13 Mg9 1.986 1_655 S
O13 C30 1.307 . S
O14 Mg3 2.023 1_554 S
O14 C29 1.264 . S
O15 Mg4 1.942 . S
O15 C20 1.244 . S
O16 Mg4 1.955 1_554 S
O16 C29 1.273 . S
O17 Mg6 2.109 1_456 S
O17 Mg8 2.291 1_556 S
O17 C19 1.312 . S
O18 Mg3 2.031 1_455 S
O18 C19 1.208 . S
C19 O17 1.312 . S
C19 O18 1.208 . S
C20 O12 1.331 . S
C20 O15 1.244 . S
O21 Mg6 2.007 1_566 S
O21 C10 1.191 . S
O22 C1 1.331 . S
O22 Mg8 2.081 1_565 S
O23 Mg4 1.986 1_565 S
O23 C10 1.307 . S
O24 C2 1.264 . S
O24 Mg8 2.023 1_566 S
O25 C1 1.244 . S
O25 Mg9 1.942 . S
O26 C2 1.273 . S
O26 Mg9 1.955 1_556 S
O27 C0 1.312 . S
O27 Mg3 2.291 1_454 S
O27 Mg6 2.119 1_455 S
O28 C0 1.208 . S
O28 Mg8 2.031 . S
C29 O14 1.264 . S
C29 O16 1.273 . S
C30 O11 1.191 . S
C30 O13 1.307 . S
Co31 O34 2.042 . S
Co31 O41 2.264 . S
Co31 O60 2.286 . S
Co31 O61 2.069 . S
Co31 O63 2.015 . S
Co32 O34 2.122 . S
Co32 O40 2.073 . S
Co32 O41 2.327 . S
Co32 O42 1.976 . S
Co33 O34 2.087 . S
Co33 O36 2.087 . S
Co33 O43 2.111 . S
Co33 O44 2.143 . S
Co33 O48 2.111 . S
Co33 O62 2.143 . S
O34 Co31 2.042 . S
O34 Co32 2.122 . S
O34 Co33 2.087 . S
O34 H35 0.980 . S
H35 O34 0.980 . S
O36 Co33 2.087 . S
O36 Co37 2.042 . S
O36 Co38 2.122 . S
O36 H39 0.980 . S
Co37 O36 2.042 . S
Co37 O45 2.286 . S
Co37 O46 2.069 . S
Co37 O47 2.015 . S
Co37 O50 2.264 . S
Co38 O36 2.122 . S
Co38 O49 1.976 . S
Co38 O50 2.327 . S
Co38 O51 2.073 . S
H39 O36 0.980 . S
O40 Co32 2.073 . S
O40 C55 1.245 . S
O41 Co31 2.264 . S
O41 Co32 2.327 . S
O41 C55 1.257 . S
O42 Co32 1.976 . S
O42 C54 1.251 . S
O43 Co33 2.111 . S
O43 C54 1.274 . S
O44 Co33 2.143 . S
O44 C57 1.246 . S
O45 Co37 2.286 . S
O45 C56 1.259 . S
O46 Co37 2.069 . S
O46 C56 1.289 . S
O47 Co37 2.015 . S
O47 C57 1.257 . S
O48 Co33 2.111 . S
O48 C58 1.274 . S
O49 Co38 1.976 . S
O49 C58 1.251 . S
O50 Co37 2.264 . S
O50 Co38 2.327 . S
O50 C59 1.257 . S
O51 Co38 2.073 . S
O51 C59 1.245 . S
C52 O60 1.259 . S
C52 O61 1.289 . S
C53 O62 1.246 . S
C53 O63 1.257 . S
C54 O42 1.251 . S
C54 O43 1.274 . S
C55 O40 1.245 . S
C55 O41 1.257 . S
C56 O45 1.259 . S
C56 O46 1.289 . S
C57 O44 1.246 . S
C57 O47 1.257 . S
C58 O48 1.274 . S
C58 O49 1.251 . S
C59 O50 1.257 . S
C59 O51 1.245 . S
O60 Co31 2.286 . S
O60 C52 1.259 . S
O61 Co31 2.069 . S
O61 C52 1.289 . S
O62 Co33 2.143 . S
O62 C53 1.246 . S
O63 Co31 2.015 . S
O63 C53 1.257 . S
H64 C72 0.950 . S
H65 C77 0.950 . S
H66 C74 0.950 . S
H67 C76 0.950 . S
H68 C78 0.950 . S
H69 C80 0.950 . S
H70 C82 0.950 . S
H71 C83 0.950 . S
C72 H64 0.950 . S
C72 C73 1.386 . S
C72 C74 1.391 . S
C73 C72 1.386 . S
C73 C77 1.393 . S
C74 H66 0.950 . S
C74 C72 1.391 . S
C74 C75 1.400 . S
C75 C74 1.400 . S
C75 C76 1.398 . S
C75 C81 1.491 . S
C76 H67 0.950 . S
C76 C75 1.398 . S
C76 C77 1.391 . S
C77 H65 0.950 . S
C77 C73 1.393 . S
C77 C76 1.391 . S
C78 H68 0.950 . S
C78 C79 1.386 . S
C78 C80 1.391 . S
C79 C78 1.386 . S
C79 C83 1.393 . S
C80 H69 0.950 . S
C80 C78 1.391 . S
C80 C81 1.400 . S
C81 C75 1.491 . S
C81 C80 1.400 . S
C81 C82 1.398 . S
C82 H70 0.950 . S
C82 C81 1.398 . S
C82 C83 1.391 . S
C83 H71 0.950 . S
C83 C79 1.393 . S
C83 C82 1.391 . S
H84 C92 0.950 . S
H85 C97 0.950 . S
H86 C94 0.950 . S
H87 C96 0.950 . S
H88 C98 0.950 . S
H89 C100 0.950 . S
H90 C102 0.950 . S
H91 C103 0.950 . S
C92 H84 0.950 . S
C92 C93 1.386 . S
C92 C94 1.391 . S
C93 C92 1.386 . S
C93 C97 1.393 . S
C94 H86 0.950 . S
C94 C92 1.391 . S
C94 C95 1.400 . S
C95 C94 1.400 . S
C95 C96 1.398 . S
C95 C101 1.491 . S
C96 H87 0.950 . S
C96 C95 1.398 . S
C96 C97 1.391 . S
C97 H85 0.950 . S
C97 C93 1.393 . S
C97 C96 1.391 . S
C98 H88 0.950 . S
C98 C99 1.386 . S
C98 C100 1.391 . S
C99 C98 1.386 . S
C99 C103 1.393 . S
C100 H89 0.950 . S
C100 C98 1.391 . S
C100 C101 1.400 . S
C101 C95 1.491 . S
C101 C100 1.400 . S
C101 C102 1.398 . S
C102 H90 0.950 . S
C102 C101 1.398 . S
C102 C103 1.391 . S
C103 H91 0.950 . S
C103 C99 1.393 . S
C103 C102 1.391 . S
H104 C112 0.950 . S
H105 C117 0.950 . S
H106 C114 0.950 . S
H107 C116 0.950 . S
H108 C118 0.950 . S
H109 C120 0.950 . S
H110 C122 0.950 . S
H111 C123 0.950 . S
C112 H104 0.950 . S
C112 C113 1.386 . S
C112 C114 1.391 . S
C113 C112 1.386 . S
C113 C117 1.393 . S
C114 H106 0.950 . S
C114 C112 1.391 . S
C114 C115 1.400 . S
C115 C114 1.400 . S
C115 C116 1.398 . S
C115 C121 1.491 . S
C116 H107 0.950 . S
C116 C115 1.398 . S
C116 C117 1.391 . S
C117 H105 0.950 . S
C117 C113 1.393 . S
C117 C116 1.391 . S
C118 H108 0.950 . S
C118 C119 1.386 . S
C118 C120 1.391 . S
C119 C118 1.386 . S
C119 C123 1.393 . S
C120 H109 0.950 . S
C120 C118 1.391 . S
C120 C121 1.400 . S
C121 C115 1.491 . S
C121 C120 1.400 . S
C121 C122 1.398 . S
C122 H110 0.950 . S
C122 C121 1.398 . S
C122 C123 1.391 . S
C123 H111 0.950 . S
C123 C119 1.393 . S
C123 C122 1.391 . S
H124 C132 0.950 . S
H125 C137 0.950 . S
H126 C134 0.950 . S
H127 C136 0.950 . S
H128 C138 0.950 . S
H129 C140 0.950 . S
H130 C142 0.950 . S
H131 C143 0.950 . S
C132 H124 0.950 . S
C132 C133 1.386 . S
C132 C134 1.391 . S
C133 C132 1.386 . S
C133 C137 1.393 . S
C134 H126 0.950 . S
C134 C132 1.391 . S
C134 C135 1.400 . S
C135 C134 1.400 . S
C135 C136 1.398 . S
C135 C141 1.491 . S
C136 H127 0.950 . S
C136 C135 1.398 . S
C136 C137 1.391 . S
C137 H125 0.950 . S
C137 C133 1.393 . S
C137 C136 1.391 . S
C138 H128 0.950 . S
C138 C139 1.386 . S
C138 C140 1.391 . S
C139 C138 1.386 . S
C139 C143 1.393 . S
C140 H129 0.950 . S
C140 C138 1.391 . S
C140 C141 1.400 . S
C141 C135 1.491 . S
C141 C140 1.400 . S
C141 C142 1.398 . S
C142 H130 0.950 . S
C142 C141 1.398 . S
C142 C143 1.391 . S
C143 H131 0.950 . S
C143 C139 1.393 . S
C143 C142 1.391 . S
H144 C152 0.950 . S
H145 C157 0.950 . S
H146 C154 0.950 . S
H147 C156 0.950 . S
H148 C158 0.950 . S
H149 C160 0.950 . S
H150 C162 0.950 . S
H151 C163 0.950 . S
C152 H144 0.950 . S
C152 C153 1.386 . S
C152 C154 1.391 . S
C153 C152 1.386 . S
C153 C157 1.393 . S
C154 H146 0.950 . S
C154 C152 1.391 . S
C154 C155 1.400 . S
C155 C154 1.400 . S
C155 C156 1.398 . S
C155 C161 1.491 . S
C156 H147 0.950 . S
C156 C155 1.398 . S
C156 C157 1.391 . S
C157 H145 0.950 . S
C157 C153 1.393 . S
C157 C156 1.391 . S
C158 H148 0.950 . S
C158 C159 1.386 . S
C158 C160 1.391 . S
C159 C158 1.386 . S
C159 C163 1.393 . S
C160 H149 0.950 . S
C160 C158 1.391 . S
C160 C161 1.400 . S
C161 C155 1.491 . S
C161 C160 1.400 . S
C161 C162 1.398 . S
C162 H150 0.950 . S
C162 C161 1.398 . S
C162 C163 1.391 . S
C163 H151 0.950 . S
C163 C159 1.393 . S
C163 C162 1.391 . S
H164 C172 0.950 . S
H165 C177 0.950 . S
H166 C174 0.950 . S
H167 C176 0.950 . S
H168 C178 0.950 . S
H169 C180 0.950 . S
H170 C182 0.950 . S
H171 C183 0.950 . S
C172 H164 0.950 . S
C172 C173 1.386 . S
C172 C174 1.391 . S
C173 C172 1.386 . S
C173 C177 1.393 . S
C174 H166 0.950 . S
C174 C172 1.391 . S
C174 C175 1.400 . S
C175 C174 1.400 . S
C175 C176 1.398 . S
C175 C181 1.491 . S
C176 H167 0.950 . S
C176 C175 1.398 . S
C176 C177 1.391 . S
C177 H165 0.950 . S
C177 C173 1.393 . S
C177 C176 1.391 . S
C178 H168 0.950 . S
C178 C179 1.386 . S
C178 C180 1.391 . S
C179 C178 1.386 . S
C179 C183 1.393 . S
C180 H169 0.950 . S
C180 C178 1.391 . S
C180 C181 1.400 . S
C181 C175 1.491 . S
C181 C180 1.400 . S
C181 C182 1.398 . S
C182 H170 0.950 . S
C182 C181 1.398 . S
C182 C183 1.391 . S
C183 H171 0.950 . S
C183 C179 1.393 . S
C183 C182 1.391 . S
H184 C192 0.950 . S
H185 C197 0.950 . S
H186 C194 0.950 . S
H187 C196 0.950 . S
H188 C198 0.950 . S
H189 C200 0.950 . S
H190 C202 0.950 . S
H191 C203 0.950 . S
C192 H184 0.950 . S
C192 C193 1.386 . S
C192 C194 1.391 . S
C193 C192 1.386 . S
C193 C197 1.393 . S
C194 H186 0.950 . S
C194 C192 1.391 . S
C194 C195 1.400 . S
C195 C194 1.400 . S
C195 C196 1.398 . S
C195 C201 1.491 . S
C196 H187 0.950 . S
C196 C195 1.398 . S
C196 C197 1.391 . S
C197 H185 0.950 . S
C197 C193 1.393 . S
C197 C196 1.391 . S
C198 H188 0.950 . S
C198 C199 1.386 . S
C198 C200 1.391 . S
C199 C198 1.386 . S
C199 C203 1.393 . S
C200 H189 0.950 . S
C200 C198 1.391 . S
C200 C201 1.400 . S
C201 C195 1.491 . S
C201 C200 1.400 . S
C201 C202 1.398 . S
C202 H190 0.950 . S
C202 C201 1.398 . S
C202 C203 1.391 . S
C203 H191 0.950 . S
C203 C199 1.393 . S
C203 C202 1.391 . S
H204 C212 0.950 . S
H205 C217 0.950 . S
H206 C214 0.950 . S
H207 C216 0.950 . S
H208 C218 0.950 . S
H209 C220 0.950 . S
H210 C222 0.950 . S
H211 C223 0.950 . S
C212 H204 0.950 . S
C212 C213 1.386 . S
C212 C214 1.391 . S
C213 C212 1.386 . S
C213 C217 1.393 . S
C214 H206 0.950 . S
C214 C212 1.391 . S
C214 C215 1.400 . S
C215 C214 1.400 . S
C215 C216 1.398 . S
C215 C221 1.491 . S
C216 H207 0.950 . S
C216 C215 1.398 . S
C216 C217 1.391 . S
C217 H205 0.950 . S
C217 C213 1.393 . S
C217 C216 1.391 . S
C218 H208 0.950 . S
C218 C219 1.386 . S
C218 C220 1.391 . S
C219 C218 1.386 . S
C219 C223 1.393 . S
C220 H209 0.950 . S
C220 C218 1.391 . S
C220 C221 1.400 . S
C221 C215 1.491 . S
C221 C220 1.400 . S
C221 C222 1.398 . S
C222 H210 0.950 . S
C222 C221 1.398 . S
C222 C223 1.391 . S
C223 H211 0.950 . S
C223 C219 1.393 . S
C223 C222 1.391 . S
C73 C0 1.344 . S
C79 C53 1.376 . S
C93 C29 1.731 . S
C99 C52 1.751 . S
C113 C30 1.309 . S
C119 C58 1.279 . S
C133 C1 1.527 . S
C139 C59 1.473 . S
C153 C2 1.718 . S
C159 C56 1.756 . S
C179 C54 1.320 . S
C173 C19 1.315 . S
C193 C20 1.506 . S
C199 C55 1.487 . S
C219 C57 1.327 . S
C213 C10 1.335 . S
