# Generated by pormake.
# Topology pts, (4,4)-cn, num edge types: 1
# Building blocks:
#     Node 0, Type 0, BuildingBlock: KOZSID_clean_sbu_0, # of connection points: 4
#     Node 1, Type 0, BuildingBlock: KOZSID_clean_sbu_0, # of connection points: 4
#     Node 2, Type 1, BuildingBlock: AZAVOO_clean_sbu_0, # of connection points: 4
#     Node 3, Type 1, BuildingBlock: AZAVOO_clean_sbu_0, # of connection points: 4
#     Edge 4, Type (0, 1), BuildingBlock: OJICUG_clean_linker_0, # of connection points: 2
#     Edge 5, Type (0, 1), BuildingBlock: OJICUG_clean_linker_0, # of connection points: 2
#     Edge 6, Type (0, 1), BuildingBlock: OJICUG_clean_linker_0, # of connection points: 2
#     Edge 7, Type (0, 1), BuildingBlock: OJICUG_clean_linker_0, # of connection points: 2
#     Edge 8, Type (0, 1), BuildingBlock: OJICUG_clean_linker_0, # of connection points: 2
#     Edge 9, Type (0, 1), BuildingBlock: OJICUG_clean_linker_0, # of connection points: 2
#     Edge 10, Type (0, 1), BuildingBlock: OJICUG_clean_linker_0, # of connection points: 2
#     Edge 11, Type (0, 1), BuildingBlock: OJICUG_clean_linker_0, # of connection points: 2
# Relax obj value: 0.000
# Max RMSD: 0.032
# Mean RMSD: 0.016
data_MOF--net-pts--node1-KOZSID_clean_sbu_0--node2-AZAVOO_clean_sbu_0--edge1-OJICUG_clean_linker_0
_symmetry_space_group_name_H-M    P1
_symmetry_Int_Tables_number       1
_symmetry_cell_setting            triclinic
loop_
_symmetry_equiv_pos_as_xyz
'x, y, z'
_cell_length_a     20.137606
_cell_length_b     20.768099
_cell_length_c     30.283646
_cell_angle_alpha  84.697691
_cell_angle_beta   102.18682
_cell_angle_gamma 90.61104
loop_
_atom_site_label
_atom_site_type_symbol
_atom_site_fract_x
_atom_site_fract_y
_atom_site_fract_z
_atom_type_partial_charge
C0 C 0.70612 0.1379 0.09057 0.0
C1 C 0.72971 0.19716 0.10482 0.0
C2 C 0.68818 0.24332 0.07806 0.0
C3 C 0.64175 0.20977 0.04916 0.0
N4 N 0.65065 0.14486 0.05611 0.0
Co5 Co 0.59567 0.07796 0.02098 0.0
N6 N 0.53885 0.14607 0.97872 0.0
C7 C 0.5459 0.21091 0.97885 0.0
C8 C 0.4988 0.24538 0.94617 0.0
C9 C 0.45887 0.19989 0.92401 0.0
C10 C 0.48396 0.14008 0.94465 0.0
N11 N 0.53983 0.01084 0.98655 0.0
C12 C 0.48421 0.01773 0.95227 0.0
C13 C 0.45859 0.95829 0.93953 0.0
C14 C 0.49901 0.91213 0.96701 0.0
C15 C 0.54667 0.94582 0.99488 0.0
N16 N 0.65343 0.00974 0.06257 0.0
C17 C 0.64791 0.94487 0.0615 0.0
C18 C 0.69665 0.91036 0.09289 0.0
C19 C 0.73647 0.95582 0.11502 0.0
C20 C 0.70948 0.01569 0.09572 0.0
N21 N 0.52989 0.07648 0.0618 0.0
C22 C 0.42296 0.07308 0.10926 0.0
C23 C 0.45598 0.01636 0.10379 0.0
C24 C 0.50896 0.01915 0.08039 0.0
C25 C 0.44694 0.13181 0.09256 0.0
C26 C 0.5002 0.1324 0.0694 0.0
N27 N 0.66089 0.07968 0.97983 0.0
C28 C 0.72638 0.02344 0.93671 0.0
C29 C 0.75383 0.08145 0.92176 0.0
C30 C 0.73459 0.13855 0.9368 0.0
C31 C 0.68811 0.13664 0.96536 0.0
C32 C 0.68068 0.02363 0.96555 0.0
H33 H 0.6748 0.18193 0.97507 0.0
H34 H 0.66207 0.97775 0.97582 0.0
H35 H 0.53134 0.97414 0.07712 0.0
H36 H 0.51536 0.17868 0.05706 0.0
C37 C 0.59346 0.23787 0.01254 0.0
C38 C 0.73978 0.07665 0.10957 0.0
C39 C 0.45276 0.07914 0.93152 0.0
C40 C 0.59757 0.91779 0.02972 0.0
H41 H 0.77346 0.20612 0.13109 0.0
H42 H 0.69275 0.29524 0.07857 0.0
H43 H 0.49292 0.29739 0.94006 0.0
H44 H 0.41533 0.20958 0.89639 0.0
H45 H 0.41456 0.9492 0.91351 0.0
H46 H 0.49362 0.8602 0.96716 0.0
H47 H 0.7032 0.85837 0.09845 0.0
H48 H 0.78096 0.94604 0.14189 0.0
H49 H 0.44096 0.96968 0.11739 0.0
H50 H 0.42351 0.17722 0.09608 0.0
H51 H 0.74039 0.97778 0.9264 0.0
H52 H 0.75403 0.18476 0.92576 0.0
C53 C 0.15534 0.4756 0.59864 0.0
C54 C 0.21742 0.45098 0.62315 0.0
C55 C 0.26642 0.4857 0.60691 0.0
C56 C 0.2316 0.52938 0.57361 0.0
N57 N 0.16328 0.52535 0.56802 0.0
Co58 Co 0.09343 0.57827 0.52258 0.0
N59 N 0.1655 0.63028 0.49921 0.0
C60 C 0.23351 0.62512 0.51493 0.0
C61 C 0.2701 0.66898 0.49343 0.0
C62 C 0.22268 0.70477 0.46229 0.0
C63 C 0.15962 0.68019 0.46643 0.0
N64 N 0.02352 0.62946 0.47593 0.0
C65 C 0.03123 0.67789 0.44427 0.0
C66 C 0.96927 0.69871 0.4173 0.0
C67 C 0.92052 0.66253 0.43274 0.0
C68 C 0.95538 0.62166 0.46791 0.0
N69 N 0.02124 0.52838 0.5474 0.0
C70 C 0.95318 0.53684 0.53392 0.0
C71 C 0.91646 0.49605 0.55758 0.0
C72 C 0.9638 0.45908 0.58794 0.0
C73 C 0.02695 0.47961 0.58098 0.0
N74 N 0.09179 0.6425 0.56685 0.0
C75 C 0.08999 0.73389 0.62963 0.0
C76 C 0.02999 0.71604 0.60117 0.0
C77 C 0.03206 0.67077 0.57015 0.0
C78 C 0.15069 0.70468 0.62658 0.0
C79 C 0.15043 0.65946 0.59528 0.0
N80 N 0.09536 0.51363 0.47842 0.0
C81 C 0.0391 0.43235 0.43189 0.0
C82 C 0.09975 0.41638 0.41966 0.0
C83 C 0.15763 0.45175 0.43637 0.0
C84 C 0.15453 0.49905 0.46579 0.0
C85 C 0.03787 0.48118 0.46044 0.0
H86 H 0.20107 0.52247 0.47824 0.0
H87 H 0.98994 0.49089 0.46809 0.0
H88 H 0.98482 0.66 0.54886 0.0
H89 H 0.19846 0.63932 0.59458 0.0
C90 C 0.26153 0.57673 0.5486 0.0
C91 C 0.0905 0.44825 0.60466 0.0
C92 C 0.09571 0.70659 0.439 0.0
C93 C 0.92537 0.5792 0.49621 0.0
H94 H 0.22621 0.41161 0.6498 0.0
H95 H 0.32091 0.47995 0.61813 0.0
H96 H 0.32474 0.67419 0.49957 0.0
H97 H 0.23344 0.74455 0.43924 0.0
H98 H 0.96026 0.73667 0.38966 0.0
H99 H 0.86608 0.66647 0.4204 0.0
H100 H 0.86176 0.49221 0.55237 0.0
H101 H 0.95283 0.42028 0.61165 0.0
H102 H 0.98184 0.73831 0.60181 0.0
H103 H 0.19841 0.71683 0.64815 0.0
H104 H 0.99273 0.40618 0.42078 0.0
H105 H 0.20571 0.44275 0.42735 0.0
Mg106 Mg 0.1464 0.05454 0.29425 0.0
O107 O 0.03767 0.05968 0.24852 0.0
O108 O 0.96646 0.0486 0.2963 0.0
Mg109 Mg 0.02484 0.03528 0.3695 0.0
C110 C 0.9774 0.05701 0.25615 0.0
C111 C 0.20394 0.05013 0.20693 0.0
O112 O 0.17144 0.99498 0.20765 0.0
O113 O 0.13357 0.15707 0.3134 0.0
O114 O 0.06165 0.13948 0.36056 0.0
O115 O 0.14974 0.94644 0.29615 0.0
O116 O 0.11114 -0.00049 0.34536 0.0
C117 C 0.09839 0.17692 0.34006 0.0
C118 C 0.12268 0.945 0.33136 0.0
O119 O 0.19832 0.08929 0.23589 0.0
Mg120 Mg 0.04709 0.06572 0.7491 0.0
O121 O 0.1554 0.06708 0.79455 0.0
O122 O 0.22607 0.0555 0.74769 0.0
Mg123 Mg 0.16759 0.0419 0.67607 0.0
C124 C 0.2155 0.06366 0.78696 0.0
C125 C 0.93485 0.07415 0.79653 0.0
O126 O 0.91637 0.0399 0.76164 0.0
O127 O 0.063 0.16848 0.71796 0.0
O128 O 0.12887 0.14553 0.67038 0.0
O129 O 0.03988 0.95742 0.76008 0.0
O130 O 0.08264 0.00934 0.70586 0.0
C131 C 0.09458 0.18561 0.68631 0.0
C132 C 0.06868 0.95529 0.72592 0.0
O133 O 0.9938 0.09907 0.80296 0.0
C134 C 0.35535 0.11676 0.16148 0.0
C135 C 0.3638 0.07058 0.13185 0.0
H136 H 0.29792 0.14712 0.20808 0.0
C137 C 0.31563 0.02106 0.12437 0.0
H138 H 0.39157 0.15539 0.16823 0.0
C139 C 0.26209 0.01624 0.14727 0.0
C140 C 0.25512 0.06089 0.17821 0.0
H141 H 0.31951 0.98556 0.10098 0.0
H142 H 0.22704 0.97648 0.14145 0.0
C143 C 0.30159 0.11201 0.18437 0.0
C144 C 0.07019 0.3681 0.66794 0.0
C145 C 0.08946 0.38136 0.62611 0.0
H146 H 0.05591 0.29499 0.72004 0.0
C147 C 0.10918 0.33063 0.60426 0.0
H148 H 0.05508 0.40706 0.68526 0.0
C149 C 0.11038 0.26738 0.62401 0.0
C150 C 0.09139 0.25335 0.666 0.0
H151 H 0.12399 0.34009 0.57189 0.0
H152 H 0.12606 0.22939 0.6061 0.0
C153 C 0.07066 0.30429 0.68768 0.0
C154 C 0.86645 0.07139 0.13699 0.0
C155 C 0.80143 0.07551 0.14646 0.0
H156 H 0.97373 0.06249 0.16428 0.0
C157 C 0.79451 0.07484 0.19148 0.0
H158 H 0.87242 0.07144 0.10226 0.0
C159 C 0.85178 0.06932 0.2268 0.0
C160 C 0.91738 0.06441 0.21784 0.0
H161 H 0.7446 0.07761 0.1993 0.0
H162 H 0.84437 0.06853 0.26124 0.0
C163 C 0.92414 0.06614 0.17242 0.0
C164 C 0.13823 0.83536 0.66108 0.0
C165 C 0.08983 0.78602 0.65981 0.0
H166 H 0.1705 0.92686 0.68413 0.0
C167 C 0.03917 0.78932 0.68516 0.0
H168 H 0.17778 0.83425 0.64183 0.0
C169 C 0.0351 0.84266 0.70951 0.0
C170 C 0.08097 0.89384 0.70825 0.0
H171 H 1.00175 0.75148 0.68521 0.0
H172 H 0.99387 0.84551 0.72718 0.0
C173 C 0.13369 0.8888 0.68496 0.0
C174 C 0.32625 0.08185 0.90366 0.0
C175 C 0.39151 0.07899 0.89444 0.0
H176 H 0.21885 0.07917 0.87688 0.0
C177 C 0.39881 0.07222 0.8502 0.0
H178 H 0.31999 0.08668 0.93787 0.0
C179 C 0.34158 0.06763 0.81549 0.0
C180 C 0.27568 0.06965 0.82434 0.0
H181 H 0.44892 0.06957 0.84267 0.0
H182 H 0.34925 0.062 0.78172 0.0
C183 C 0.26866 0.0773 0.86885 0.0
C184 C 0.04585 0.34214 0.36093 0.0
C185 C 0.1033 0.36057 0.39243 0.0
H186 H 0.99941 0.26858 0.31957 0.0
C187 C 0.16247 0.32178 0.40047 0.0
H188 H 0.99999 0.3714 0.35264 0.0
C189 C 0.16273 0.26439 0.37978 0.0
C190 C 0.10364 0.24412 0.35134 0.0
H191 H 0.20751 0.3333 0.42486 0.0
H192 H 0.20752 0.23355 0.38863 0.0
C193 C 0.04567 0.28387 0.34127 0.0
C194 C 0.8601 0.1187 0.89541 0.0
C195 C 0.80014 0.08205 0.88942 0.0
H196 H 0.95049 0.14477 0.87099 0.0
C197 C 0.78445 0.04498 0.8522 0.0
H198 H 0.8736 0.1476 0.92393 0.0
C199 C 0.82785 0.04367 0.82201 0.0
C200 C 0.88855 0.07908 0.82828 0.0
H201 H 0.73818 0.01705 0.84622 0.0
H202 H 0.8139 0.01407 0.79391 0.0
C203 C 0.90417 0.11694 0.86523 0.0
C204 C 0.11733 0.76593 0.36767 0.0
C205 C 0.09619 0.76682 0.40884 0.0
H206 H 0.14174 0.82207 0.31033 0.0
C207 C 0.07883 0.82568 0.42271 0.0
H208 H 0.13084 0.72065 0.35657 0.0
C209 C 0.08495 0.88348 0.39654 0.0
C210 C 0.10844 0.8833 0.35597 0.0
H211 H 0.0625 0.82701 0.4545 0.0
H212 H 0.07348 0.92835 0.409 0.0
C213 C 0.12342 0.82381 0.34136 0.0
loop_
_geom_bond_atom_site_label_1
_geom_bond_atom_site_label_2
_geom_bond_distance
_geom_bond_site_symmetry_2
_ccdc_geom_bond_type
C0 C1 1.443 . S
C0 N4 1.376 . S
C0 C38 1.389 . S
C1 C0 1.443 . S
C1 C2 1.340 . S
C1 H41 0.951 . S
C2 C1 1.340 . S
C2 C3 1.439 . S
C2 H42 0.950 . S
C3 C2 1.439 . S
C3 N4 1.374 . S
C3 C37 1.395 . S
N4 C0 1.376 . S
N4 C3 1.374 . S
N4 Co5 2.008 . S
Co5 N4 2.008 . S
Co5 N6 1.995 1_554 S
Co5 N11 2.008 1_544 S
Co5 N16 1.995 1_545 S
Co5 N21 2.282 . S
Co5 N27 2.282 1_554 S
N6 Co5 1.995 1_556 S
N6 C7 1.376 . S
N6 C10 1.383 . S
C7 N6 1.376 . S
C7 C8 1.446 . S
C7 C37 1.391 1_556 S
C8 C7 1.446 . S
C8 C9 1.339 . S
C8 H43 0.949 . S
C9 C8 1.339 . S
C9 C10 1.439 . S
C9 H44 0.950 . S
C10 N6 1.383 . S
C10 C9 1.439 . S
C10 C39 1.392 . S
N11 Co5 2.008 1_566 S
N11 C12 1.376 1_565 S
N11 C15 1.374 1_556 S
C12 N11 1.376 1_545 S
C12 C13 1.443 1_545 S
C12 C39 1.389 . S
C13 C12 1.443 1_565 S
C13 C14 1.340 . S
C13 H45 0.951 . S
C14 C13 1.340 . S
C14 C15 1.439 1_556 S
C14 H46 0.950 . S
C15 N11 1.374 1_554 S
C15 C14 1.439 1_554 S
C15 C40 1.395 . S
N16 Co5 1.995 1_565 S
N16 C17 1.376 . S
N16 C20 1.383 1_565 S
C17 N16 1.376 . S
C17 C18 1.446 . S
C17 C40 1.391 . S
C18 C17 1.446 . S
C18 C19 1.339 . S
C18 H47 0.949 . S
C19 C18 1.339 . S
C19 C20 1.439 1_565 S
C19 H48 0.950 . S
C20 N16 1.383 1_545 S
C20 C19 1.439 1_545 S
C20 C38 1.392 . S
N21 Co5 2.282 . S
N21 C24 1.332 . S
N21 C26 1.332 . S
C22 C23 1.386 . S
C22 C25 1.388 . S
C23 C22 1.386 . S
C23 C24 1.382 . S
C23 H49 0.950 1_545 S
C24 N21 1.332 . S
C24 C23 1.382 . S
C24 H35 0.952 1_545 S
C25 C22 1.388 . S
C25 C26 1.382 . S
C25 H50 0.950 . S
C26 N21 1.332 . S
C26 C25 1.382 . S
C26 H36 0.948 . S
N27 Co5 2.282 1_556 S
N27 C31 1.332 . S
N27 C32 1.332 . S
C28 C29 1.388 . S
C28 C32 1.382 . S
C28 H51 0.950 1_545 S
C29 C28 1.388 . S
C29 C30 1.386 . S
C30 C29 1.386 . S
C30 C31 1.382 . S
C30 H52 0.950 . S
C31 N27 1.332 . S
C31 C30 1.382 . S
C31 H33 0.952 . S
C32 N27 1.332 . S
C32 C28 1.382 . S
C32 H34 0.948 1_545 S
H33 C31 0.952 . S
H34 C32 0.948 1_565 S
H35 C24 0.952 1_565 S
H36 C26 0.948 . S
C37 C3 1.395 . S
C37 C7 1.391 1_554 S
C38 C0 1.389 . S
C38 C20 1.392 . S
C39 C10 1.392 . S
C39 C12 1.389 . S
C40 C15 1.395 . S
C40 C17 1.391 . S
H41 C1 0.951 . S
H42 C2 0.950 . S
H43 C8 0.949 . S
H44 C9 0.950 . S
H45 C13 0.951 . S
H46 C14 0.950 . S
H47 C18 0.949 . S
H48 C19 0.950 . S
H49 C23 0.950 1_565 S
H50 C25 0.950 . S
H51 C28 0.950 1_565 S
H52 C30 0.950 . S
C53 C54 1.443 . S
C53 N57 1.376 . S
C53 C91 1.389 . S
C54 C53 1.443 . S
C54 C55 1.340 . S
C54 H94 0.951 . S
C55 C54 1.340 . S
C55 C56 1.439 . S
C55 H95 0.950 . S
C56 C55 1.439 . S
C56 N57 1.374 . S
C56 C90 1.395 . S
N57 C53 1.376 . S
N57 C56 1.374 . S
N57 Co58 2.008 . S
Co58 N57 2.008 . S
Co58 N59 1.995 . S
Co58 N64 2.008 . S
Co58 N69 1.995 . S
Co58 N74 2.282 . S
Co58 N80 2.282 . S
N59 Co58 1.995 . S
N59 C60 1.376 . S
N59 C63 1.383 . S
C60 N59 1.376 . S
C60 C61 1.446 . S
C60 C90 1.391 . S
C61 C60 1.446 . S
C61 C62 1.339 . S
C61 H96 0.949 . S
C62 C61 1.339 . S
C62 C63 1.439 . S
C62 H97 0.950 . S
C63 N59 1.383 . S
C63 C62 1.439 . S
C63 C92 1.392 . S
N64 Co58 2.008 . S
N64 C65 1.376 . S
N64 C68 1.374 1_455 S
C65 N64 1.376 . S
C65 C66 1.443 1_455 S
C65 C92 1.389 . S
C66 C65 1.443 1_655 S
C66 C67 1.340 . S
C66 H98 0.951 . S
C67 C66 1.340 . S
C67 C68 1.439 . S
C67 H99 0.950 . S
C68 N64 1.374 1_655 S
C68 C67 1.439 . S
C68 C93 1.395 . S
N69 Co58 1.995 . S
N69 C70 1.376 1_455 S
N69 C73 1.383 . S
C70 N69 1.376 1_655 S
C70 C71 1.446 . S
C70 C93 1.391 . S
C71 C70 1.446 . S
C71 C72 1.339 . S
C71 H100 0.949 . S
C72 C71 1.339 . S
C72 C73 1.439 1_655 S
C72 H101 0.950 . S
C73 N69 1.383 . S
C73 C72 1.439 1_455 S
C73 C91 1.392 . S
N74 Co58 2.282 . S
N74 C77 1.332 . S
N74 C79 1.332 . S
C75 C76 1.386 . S
C75 C78 1.388 . S
C76 C75 1.386 . S
C76 C77 1.382 . S
C76 H102 0.950 1_455 S
C77 N74 1.332 . S
C77 C76 1.382 . S
C77 H88 0.952 1_455 S
C78 C75 1.388 . S
C78 C79 1.382 . S
C78 H103 0.950 . S
C79 N74 1.332 . S
C79 C78 1.382 . S
C79 H89 0.948 . S
N80 Co58 2.282 . S
N80 C84 1.332 . S
N80 C85 1.332 . S
C81 C82 1.388 . S
C81 C85 1.382 . S
C81 H104 0.950 1_455 S
C82 C81 1.388 . S
C82 C83 1.386 . S
C83 C82 1.386 . S
C83 C84 1.382 . S
C83 H105 0.950 . S
C84 N80 1.332 . S
C84 C83 1.382 . S
C84 H86 0.952 . S
C85 N80 1.332 . S
C85 C81 1.382 . S
C85 H87 0.948 1_455 S
H86 C84 0.952 . S
H87 C85 0.948 1_655 S
H88 C77 0.952 1_655 S
H89 C79 0.948 . S
C90 C56 1.395 . S
C90 C60 1.391 . S
C91 C53 1.389 . S
C91 C73 1.392 . S
C92 C63 1.392 . S
C92 C65 1.389 . S
C93 C68 1.395 . S
C93 C70 1.391 . S
H94 C54 0.951 . S
H95 C55 0.950 . S
H96 C61 0.949 . S
H97 C62 0.950 . S
H98 C66 0.951 . S
H99 C67 0.950 . S
H100 C71 0.949 . S
H101 C72 0.950 . S
H102 C76 0.950 1_655 S
H103 C78 0.950 . S
H104 C81 0.950 1_655 S
H105 C83 0.950 . S
Mg106 O107 2.028 . S
Mg106 O113 1.986 . S
Mg106 O115 2.114 1_545 S
Mg106 O116 2.251 . S
Mg106 O119 2.010 . S
O107 Mg106 2.028 . S
O107 C110 1.250 1_455 S
O108 Mg109 2.028 . S
O108 C110 1.248 . S
Mg109 O108 2.028 . S
Mg109 O114 2.032 1_655 S
Mg109 O116 2.079 1_655 S
C110 O107 1.250 1_655 S
C110 O108 1.248 . S
C111 O112 1.264 . S
C111 O119 1.249 . S
O112 C111 1.264 . S
O113 Mg106 1.986 . S
O113 C117 1.246 . S
O114 Mg109 2.032 1_455 S
O114 C117 1.259 . S
O115 Mg106 2.114 1_565 S
O115 C118 1.252 . S
O116 Mg106 2.251 . S
O116 Mg109 2.079 1_455 S
O116 C118 1.273 1_545 S
C117 O113 1.246 . S
C117 O114 1.259 . S
C118 O115 1.252 . S
C118 O116 1.273 1_565 S
O119 Mg106 2.010 . S
O119 C111 1.249 . S
Mg120 O121 2.028 . S
Mg120 O127 1.986 . S
Mg120 O129 2.114 1_545 S
Mg120 O130 2.251 . S
Mg120 O133 2.010 1_455 S
O121 Mg120 2.028 . S
O121 C124 1.250 . S
O122 Mg123 2.028 . S
O122 C124 1.248 . S
Mg123 O122 2.028 . S
Mg123 O128 2.032 . S
Mg123 O130 2.079 . S
C124 O121 1.250 . S
C124 O122 1.248 . S
C125 O126 1.264 . S
C125 O133 1.249 . S
O126 C125 1.264 . S
O127 Mg120 1.986 . S
O127 C131 1.246 . S
O128 Mg123 2.032 . S
O128 C131 1.259 . S
O129 Mg120 2.114 1_565 S
O129 C132 1.252 . S
O130 Mg120 2.251 . S
O130 Mg123 2.079 . S
O130 C132 1.273 1_545 S
C131 O127 1.246 . S
C131 O128 1.259 . S
C132 O129 1.252 . S
C132 O130 1.273 1_565 S
O133 Mg120 2.010 1_655 S
O133 C125 1.249 . S
C134 C135 1.387 . S
C134 H138 0.950 . S
C134 C143 1.390 . S
C135 C134 1.387 . S
C135 C137 1.387 . S
H136 C143 0.950 . S
C137 C135 1.387 . S
C137 C139 1.390 . S
C137 H141 0.950 1_545 S
H138 C134 0.950 . S
C139 C137 1.390 . S
C139 C140 1.387 . S
C139 H142 0.950 1_545 S
C140 C139 1.387 . S
C140 C143 1.387 . S
H141 C137 0.950 1_565 S
H142 C139 0.950 1_565 S
C143 C134 1.390 . S
C143 H136 0.950 . S
C143 C140 1.387 . S
C144 C145 1.387 . S
C144 H148 0.950 . S
C144 C153 1.390 . S
C145 C144 1.387 . S
C145 C147 1.387 . S
H146 C153 0.950 . S
C147 C145 1.387 . S
C147 C149 1.390 . S
C147 H151 0.950 1_455 S
H148 C144 0.950 . S
C149 C147 1.390 . S
C149 C150 1.387 . S
C149 H152 0.950 1_455 S
C150 C149 1.387 . S
C150 C153 1.387 . S
H151 C147 0.950 1_655 S
H152 C149 0.950 1_655 S
C153 C144 1.390 . S
C153 H146 0.950 . S
C153 C150 1.387 . S
C154 C155 1.387 . S
C154 H158 0.950 . S
C154 C163 1.390 . S
C155 C154 1.387 . S
C155 C157 1.387 . S
H156 C163 0.950 . S
C157 C155 1.387 . S
C157 C159 1.390 . S
C157 H161 0.950 1_545 S
H158 C154 0.950 . S
C159 C157 1.390 . S
C159 C160 1.387 . S
C159 H162 0.950 1_545 S
C160 C159 1.387 . S
C160 C163 1.387 . S
H161 C157 0.950 1_565 S
H162 C159 0.950 1_565 S
C163 C154 1.390 . S
C163 H156 0.950 . S
C163 C160 1.387 . S
C164 C165 1.387 . S
C164 H168 0.950 1_455 S
C164 C173 1.390 . S
C165 C164 1.387 . S
C165 C167 1.387 . S
H166 C173 0.950 1_655 S
C167 C165 1.387 . S
C167 C169 1.390 . S
C167 H171 0.950 . S
H168 C164 0.950 1_655 S
C169 C167 1.390 . S
C169 C170 1.387 . S
C169 H172 0.950 . S
C170 C169 1.387 . S
C170 C173 1.387 . S
H171 C167 0.950 . S
H172 C169 0.950 . S
C173 C164 1.390 . S
C173 H166 0.950 1_455 S
C173 C170 1.387 . S
C174 C175 1.387 . S
C174 H178 0.950 . S
C174 C183 1.390 . S
C175 C174 1.387 . S
C175 C177 1.387 . S
H176 C183 0.950 . S
C177 C175 1.387 . S
C177 C179 1.390 . S
C177 H181 0.950 1_545 S
H178 C174 0.950 . S
C179 C177 1.390 . S
C179 C180 1.387 . S
C179 H182 0.950 1_545 S
C180 C179 1.387 . S
C180 C183 1.387 . S
H181 C177 0.950 1_565 S
H182 C179 0.950 1_565 S
C183 C174 1.390 . S
C183 H176 0.950 . S
C183 C180 1.387 . S
C184 C185 1.387 . S
C184 H188 0.950 1_455 S
C184 C193 1.390 . S
C185 C184 1.387 . S
C185 C187 1.387 . S
H186 C193 0.950 1_655 S
C187 C185 1.387 . S
C187 C189 1.390 . S
C187 H191 0.950 . S
H188 C184 0.950 1_655 S
C189 C187 1.390 . S
C189 C190 1.387 . S
C189 H192 0.950 . S
C190 C189 1.387 . S
C190 C193 1.387 . S
H191 C187 0.950 . S
H192 C189 0.950 . S
C193 C184 1.390 . S
C193 H186 0.950 1_455 S
C193 C190 1.387 . S
C194 C195 1.387 . S
C194 H198 0.950 . S
C194 C203 1.390 . S
C195 C194 1.387 . S
C195 C197 1.387 . S
H196 C203 0.950 . S
C197 C195 1.387 . S
C197 C199 1.390 . S
C197 H201 0.950 1_545 S
H198 C194 0.950 . S
C199 C197 1.390 . S
C199 C200 1.387 . S
C199 H202 0.950 1_545 S
C200 C199 1.387 . S
C200 C203 1.387 . S
H201 C197 0.950 1_565 S
H202 C199 0.950 1_565 S
C203 C194 1.390 . S
C203 H196 0.950 . S
C203 C200 1.387 . S
C204 C205 1.387 . S
C204 H208 0.950 . S
C204 C213 1.390 . S
C205 C204 1.387 . S
C205 C207 1.387 . S
H206 C213 0.950 . S
C207 C205 1.387 . S
C207 C209 1.390 . S
C207 H211 0.950 . S
H208 C204 0.950 . S
C209 C207 1.390 . S
C209 C210 1.387 . S
C209 H212 0.950 . S
C210 C209 1.387 . S
C210 C213 1.387 . S
H211 C207 0.950 . S
H212 C209 0.950 . S
C213 C204 1.390 . S
C213 H206 0.950 . S
C213 C210 1.387 . S
C140 C111 1.262 . S
C135 C22 1.501 . S
C150 C131 1.468 . S
C145 C91 1.495 . S
C160 C110 1.459 . S
C155 C38 1.501 . S
C170 C132 1.506 . S
C165 C75 1.506 . S
C180 C124 1.459 . S
C175 C39 1.502 . S
C190 C117 1.469 . S
C185 C82 1.495 . S
C200 C125 1.263 . S
C195 C29 1.502 . S
C205 C92 1.505 . S
C210 C118 1.505 . S
