# Generated by pormake.
# Topology nia, (6,6)-cn, num edge types: 1
# Building blocks:
#     Node 0, Type 0, BuildingBlock: PAMTUU_clean_sbu_0, # of connection points: 6
#     Node 1, Type 0, BuildingBlock: PAMTUU_clean_sbu_0, # of connection points: 6
#     Node 2, Type 1, BuildingBlock: MIDCAF_clean_sbu_0, # of connection points: 6
#     Node 3, Type 1, BuildingBlock: MIDCAF_clean_sbu_0, # of connection points: 6
#     Edge 4, Type (0, 1), None
#     Edge 5, Type (0, 1), None
#     Edge 6, Type (0, 1), None
#     Edge 7, Type (0, 1), None
#     Edge 8, Type (0, 1), None
#     Edge 9, Type (0, 1), None
#     Edge 10, Type (0, 1), None
#     Edge 11, Type (0, 1), None
#     Edge 12, Type (0, 1), None
#     Edge 13, Type (0, 1), None
#     Edge 14, Type (0, 1), None
#     Edge 15, Type (0, 1), None
# Relax obj value: 0.502
# Max RMSD: 0.321
# Mean RMSD: 0.307
data_MOF--net-nia--node1-PAMTUU_clean_sbu_0--node2-MIDCAF_clean_sbu_0--edge1-none
_symmetry_space_group_name_H-M    P1
_symmetry_Int_Tables_number       1
_symmetry_cell_setting            triclinic
loop_
_symmetry_equiv_pos_as_xyz
'x, y, z'
_cell_length_a     11.833228
_cell_length_b     16.217455
_cell_length_c     18.974439
_cell_angle_alpha  54.601164
_cell_angle_beta   114.41702
_cell_angle_gamma 133.32676
loop_
_atom_site_label
_atom_site_type_symbol
_atom_site_fract_x
_atom_site_fract_y
_atom_site_fract_z
_atom_type_partial_charge
Tb0 Tb 0.97238 0.95407 0.96367 0.0
Tb1 Tb 0.20553 0.08434 0.09526 0.0
C2 C 0.33022 0.13733 0.93909 0.0
C3 C 0.81894 0.75905 0.86696 0.0
C4 C 0.86848 0.62906 0.84596 0.0
C5 C 0.99146 0.72264 0.87354 0.0
C6 C 0.96736 0.78879 0.88268 0.0
C7 C 0.69661 0.66718 0.83795 0.0
C8 C 0.72209 0.60411 0.82586 0.0
C9 C 0.79205 0.81972 0.88563 0.0
O10 O 0.0914 0.86731 0.04702 0.0
O11 O 0.22854 0.935 0.15307 0.0
O12 O 0.98475 0.95178 0.15781 0.0
O13 O 0.82625 0.89749 0.04752 0.0
O14 O 0.39553 0.26286 0.09094 0.0
O15 O 0.29436 0.09514 0.21247 0.0
O16 O 0.08653 0.1711 0.01192 0.0
O17 O 0.94931 0.10336 0.90589 0.0
O18 O 0.19317 0.08666 0.90113 0.0
O19 O 0.35166 0.14086 0.01145 0.0
C20 C 0.18395 0.8688 0.11596 0.0
O21 O 0.78241 0.77556 0.96794 0.0
O22 O 0.88358 0.94334 0.84644 0.0
C23 C 0.84769 0.90106 0.11987 0.0
C24 C 0.35903 0.27948 0.19187 0.0
C25 C 0.30947 0.40943 0.2129 0.0
C26 C 0.18649 0.31587 0.1853 0.0
C27 C 0.21061 0.24974 0.17614 0.0
C28 C 0.48135 0.37133 0.22089 0.0
C29 C 0.45586 0.43438 0.233 0.0
C30 C 0.3859 0.21876 0.17324 0.0
C31 C 0.99393 0.16958 0.94299 0.0
H32 H 0.10425 0.74173 0.8904 0.0
H33 H 1.06328 0.8602 0.9048 0.0
H34 H 0.58171 0.64336 0.82578 0.0
H35 H 0.62469 0.53005 0.80617 0.0
H36 H 0.0737 0.29676 0.16845 0.0
H37 H 0.11469 0.17833 0.15403 0.0
H38 H 0.59625 0.39514 0.23308 0.0
H39 H 0.55325 0.50843 0.2527 0.0
Tb40 Tb 0.22069 0.05591 0.48429 0.0
Tb41 Tb 0.9573 0.98257 0.57452 0.0
C42 C 0.21693 0.26977 0.44961 0.0
C43 C 0.38352 0.00608 0.40163 0.0
C44 C 0.32702 0.83887 0.36135 0.0
C45 C 0.47055 0.96019 0.34241 0.0
C46 C 0.49939 0.04285 0.36354 0.0
C47 C 0.2378 0.88744 0.41646 0.0
C48 C 0.21043 0.80365 0.39771 0.0
C49 C 0.41139 0.09014 0.42546 0.0
O50 O 0.3296 0.0828 0.60119 0.0
O51 O 0.17226 0.08605 0.63946 0.0
O52 O 0.91822 0.80125 0.63715 0.0
O53 O 0.0668 0.85124 0.55096 0.0
O54 O 0.77719 0.99371 0.5508 0.0
O55 O 0.84275 0.90094 0.68048 0.0
O56 O 0.84908 0.95664 0.45721 0.0
O57 O 1.00556 0.95177 0.41982 0.0
O58 O 0.25901 0.237 0.42143 0.0
O59 O 0.11195 0.18723 0.5084 0.0
C60 C 0.30607 0.11287 0.64242 0.0
O61 O 0.40114 0.04523 0.50783 0.0
O62 O 0.33471 0.13731 0.3782 0.0
C63 C 0.96117 0.76864 0.6094 0.0
C64 C 0.79438 0.03236 0.65718 0.0
C65 C 0.85083 0.19939 0.69764 0.0
C66 C 0.70723 0.07813 0.71644 0.0
C67 C 0.67842 0.99557 0.69522 0.0
C68 C 0.94017 0.15091 0.64253 0.0
C69 C 0.96751 0.2346 0.66137 0.0
C70 C 0.76647 0.94846 0.63317 0.0
C71 C 0.8721 0.92572 0.41644 0.0
H72 H 0.56368 0.98816 0.31616 0.0
H73 H 0.61193 0.13439 0.35101 0.0
H74 H 0.14591 0.85807 0.44435 0.0
H75 H 0.10005 0.71011 0.41394 0.0
H76 H 0.61404 0.05016 0.74264 0.0
H77 H 0.56582 0.90408 0.70762 0.0
H78 H 1.03213 0.18028 0.6147 0.0
H79 H 0.07796 0.3281 0.64526 0.0
Zn80 Zn 0.36227 0.71457 0.12995 0.0
Zn81 Zn 0.39706 0.60474 0.42717 0.0
Zn82 Zn 0.46943 0.70703 0.2779 0.0
C83 C 0.72957 0.82788 0.38942 0.0
C84 C 0.30171 0.40378 0.42642 0.0
O85 O 0.33574 0.7894 0.21163 0.0
O86 O 0.25303 0.78818 0.08472 0.0
C87 C 0.70682 0.84742 0.15404 0.0
O88 O 0.71019 0.8282 0.31738 0.0
O89 O 0.61867 0.74328 0.44111 0.0
O90 O 0.31528 0.42725 0.48333 0.0
O91 O 0.35168 0.49468 0.35001 0.0
O92 O 0.58577 0.81481 0.10573 0.0
O93 O 0.7 0.82795 0.22874 0.0
O94 O 0.37496 0.5449 0.26038 0.0
O95 O 0.24092 0.54691 0.13696 0.0
C96 C 0.29747 0.49785 0.20566 0.0
O97 O 0.38342 0.77622 0.30117 0.0
O98 O 0.26444 0.6376 0.42615 0.0
C99 C 0.25871 0.81066 0.13996 0.0
C100 C 0.31373 0.74308 0.35999 0.0
Zn101 Zn 0.81566 0.32387 0.92901 0.0
Zn102 Zn 0.78118 0.43374 0.6319 0.0
Zn103 Zn 0.70845 0.33132 0.78107 0.0
C104 C 0.87651 0.63467 0.63256 0.0
C105 C 0.44844 0.21063 0.66956 0.0
O106 O 0.84212 0.24896 0.84734 0.0
O107 O 0.92494 0.25028 0.97421 0.0
C108 C 0.88044 0.54059 0.85323 0.0
O109 O 0.82622 0.5437 0.70891 0.0
O110 O 0.86324 0.61129 0.57568 0.0
O111 O 0.55946 0.29532 0.61794 0.0
O112 O 0.46766 0.21012 0.74165 0.0
O113 O 0.93698 0.49155 0.92195 0.0
O114 O 0.80294 0.4935 0.79854 0.0
O115 O 0.4779 0.21043 0.83022 0.0
O116 O 0.59215 0.2236 0.95322 0.0
C117 C 0.47109 0.19099 0.90492 0.0
O118 O 0.79439 0.26204 0.75781 0.0
O119 O 0.91355 0.40069 0.63289 0.0
C120 C 0.9192 0.22774 0.91899 0.0
C121 C 0.86412 0.29517 0.69902 0.0
loop_
_geom_bond_atom_site_label_1
_geom_bond_atom_site_label_2
_geom_bond_distance
_geom_bond_site_symmetry_2
_ccdc_geom_bond_type
Tb0 C9 2.764 . S
Tb0 O10 2.325 1_656 S
Tb0 O13 2.303 1_556 S
Tb0 O17 2.322 1_565 S
Tb0 O18 2.349 1_665 S
Tb0 O21 2.415 1_556 S
Tb0 O22 2.399 . S
Tb1 O11 2.322 1_545 S
Tb1 O12 2.349 1_445 S
Tb1 O14 2.415 . S
Tb1 O15 2.399 . S
Tb1 O16 2.325 1_454 S
Tb1 O19 2.303 1_554 S
Tb1 C30 2.764 . S
C2 O18 1.261 . S
C2 O19 1.257 . S
C3 C6 1.358 . S
C3 C7 1.332 1_556 S
C3 C9 1.504 . S
C4 C5 1.373 . S
C4 C8 1.308 1_556 S
C5 C4 1.373 . S
C5 C6 1.429 . S
C5 H32 0.932 . S
C6 C3 1.358 . S
C6 C5 1.429 . S
C6 H33 0.930 . S
C7 C3 1.332 1_554 S
C7 C8 1.394 . S
C7 H34 0.932 . S
C8 C4 1.308 1_554 S
C8 C7 1.394 . S
C8 H35 0.929 . S
C9 Tb0 2.764 . S
C9 C3 1.504 . S
C9 O21 1.239 1_556 S
C9 O22 1.263 . S
O10 Tb0 2.325 1_454 S
O10 C20 1.236 . S
O11 Tb1 2.322 1_565 S
O11 C20 1.257 . S
O12 Tb1 2.349 1_665 S
O12 C23 1.261 . S
O13 Tb0 2.303 1_554 S
O13 C23 1.257 . S
O14 Tb1 2.415 . S
O14 C30 1.239 . S
O15 Tb1 2.399 . S
O15 C30 1.263 . S
O16 Tb1 2.325 1_656 S
O16 C31 1.236 . S
O17 Tb0 2.322 1_545 S
O17 C31 1.257 . S
O18 Tb0 2.349 1_445 S
O18 C2 1.261 . S
O19 Tb1 2.303 1_556 S
O19 C2 1.257 . S
C20 O10 1.236 . S
C20 O11 1.257 . S
O21 Tb0 2.415 1_554 S
O21 C9 1.239 1_554 S
O22 Tb0 2.399 . S
O22 C9 1.263 . S
C23 O12 1.261 . S
C23 O13 1.257 . S
C24 C27 1.358 . S
C24 C28 1.332 . S
C24 C30 1.504 . S
C25 C26 1.373 . S
C25 C29 1.308 . S
C26 C25 1.373 . S
C26 C27 1.429 . S
C26 H36 0.932 . S
C27 C24 1.358 . S
C27 C26 1.429 . S
C27 H37 0.930 . S
C28 C24 1.332 . S
C28 C29 1.394 . S
C28 H38 0.932 1_554 S
C29 C25 1.308 . S
C29 C28 1.394 . S
C29 H39 0.929 1_554 S
C30 Tb1 2.764 . S
C30 O14 1.239 . S
C30 O15 1.263 . S
C30 C24 1.504 . S
C31 O16 1.236 . S
C31 O17 1.257 . S
H32 C5 0.932 . S
H33 C6 0.930 . S
H34 C7 0.932 . S
H35 C8 0.929 . S
H36 C26 0.932 . S
H37 C27 0.930 . S
H38 C28 0.932 1_556 S
H39 C29 0.929 1_556 S
Tb40 C49 2.764 1_545 S
Tb40 O50 2.325 . S
Tb40 O53 2.303 1_445 S
Tb40 O57 2.322 1_455 S
Tb40 O58 2.349 . S
Tb40 O61 2.415 1_545 S
Tb40 O62 2.399 . S
Tb41 O51 2.322 1_655 S
Tb41 O52 2.349 1_545 S
Tb41 O54 2.415 . S
Tb41 O55 2.399 1_545 S
Tb41 O56 2.325 1_545 S
Tb41 O59 2.303 1_655 S
Tb41 C70 2.764 . S
C42 O58 1.261 . S
C42 O59 1.257 . S
C43 C46 1.358 1_565 S
C43 C47 1.332 . S
C43 C49 1.504 . S
C44 C45 1.373 1_565 S
C44 C48 1.308 . S
C45 C44 1.373 1_545 S
C45 C46 1.429 . S
C45 H72 0.932 . S
C46 C43 1.358 1_545 S
C46 C45 1.429 . S
C46 H73 0.930 . S
C47 C43 1.332 . S
C47 C48 1.394 . S
C47 H74 0.932 . S
C48 C44 1.308 . S
C48 C47 1.394 . S
C48 H75 0.929 . S
C49 Tb40 2.764 1_565 S
C49 C43 1.504 . S
C49 O61 1.239 . S
C49 O62 1.263 1_565 S
O50 Tb40 2.325 . S
O50 C60 1.236 . S
O51 Tb41 2.322 1_455 S
O51 C60 1.257 . S
O52 Tb41 2.349 1_565 S
O52 C63 1.261 . S
O53 Tb40 2.303 1_665 S
O53 C63 1.257 . S
O54 Tb41 2.415 . S
O54 C70 1.239 . S
O55 Tb41 2.399 1_565 S
O55 C70 1.263 1_565 S
O56 Tb41 2.325 1_565 S
O56 C71 1.236 . S
O57 Tb40 2.322 1_655 S
O57 C71 1.257 1_545 S
O58 Tb40 2.349 . S
O58 C42 1.261 . S
O59 Tb41 2.303 1_455 S
O59 C42 1.257 . S
C60 O50 1.236 . S
C60 O51 1.257 . S
O61 Tb40 2.415 1_565 S
O61 C49 1.239 . S
O62 Tb40 2.399 . S
O62 C49 1.263 1_545 S
C63 O52 1.261 . S
C63 O53 1.257 . S
C64 C67 1.358 . S
C64 C68 1.332 . S
C64 C70 1.504 . S
C65 C66 1.373 . S
C65 C69 1.308 . S
C66 C65 1.373 . S
C66 C67 1.429 . S
C66 H76 0.932 1_545 S
C67 C64 1.358 . S
C67 C66 1.429 . S
C67 H77 0.930 1_545 S
C68 C64 1.332 . S
C68 C69 1.394 . S
C68 H78 0.932 . S
C69 C65 1.308 . S
C69 C68 1.394 . S
C69 H79 0.929 . S
C70 Tb41 2.764 . S
C70 O54 1.239 . S
C70 O55 1.263 1_545 S
C70 C64 1.504 . S
C71 O56 1.236 . S
C71 O57 1.257 1_565 S
H72 C45 0.932 . S
H73 C46 0.930 . S
H74 C47 0.932 . S
H75 C48 0.929 . S
H76 C66 0.932 1_565 S
H77 C67 0.930 1_565 S
H78 C68 0.932 . S
H79 C69 0.929 . S
Zn80 O86 1.920 . S
Zn80 O92 1.898 . S
Zn80 O95 1.905 . S
Zn81 O89 1.905 . S
Zn81 O90 1.898 . S
Zn81 O98 1.920 . S
Zn82 O85 2.080 . S
Zn82 O88 2.114 . S
Zn82 O91 2.120 . S
Zn82 O93 2.120 . S
Zn82 O94 2.114 . S
Zn82 O97 2.080 . S
C83 O88 1.166 . S
C83 O89 1.182 . S
C84 O90 1.167 . S
C84 O91 1.299 . S
O85 Zn82 2.080 . S
O85 C99 1.305 . S
O86 Zn80 1.920 . S
O86 C99 1.234 . S
C87 O92 1.167 . S
C87 O93 1.299 . S
O88 Zn82 2.114 . S
O88 C83 1.166 . S
O89 Zn81 1.905 . S
O89 C83 1.182 . S
O90 Zn81 1.898 . S
O90 C84 1.167 . S
O91 Zn82 2.120 . S
O91 C84 1.299 . S
O92 Zn80 1.898 . S
O92 C87 1.167 . S
O93 Zn82 2.120 . S
O93 C87 1.299 . S
O94 Zn82 2.114 . S
O94 C96 1.166 . S
O95 Zn80 1.905 . S
O95 C96 1.182 . S
C96 O94 1.166 . S
C96 O95 1.182 . S
O97 Zn82 2.080 . S
O97 C100 1.305 . S
O98 Zn81 1.920 . S
O98 C100 1.234 . S
C99 O85 1.305 . S
C99 O86 1.234 . S
C100 O97 1.305 . S
C100 O98 1.234 . S
Zn101 O107 1.920 1_556 S
Zn101 O113 1.898 . S
Zn101 O116 1.905 . S
Zn102 O110 1.905 . S
Zn102 O111 1.898 . S
Zn102 O119 1.920 . S
Zn103 O106 2.080 . S
Zn103 O109 2.114 . S
Zn103 O112 2.120 . S
Zn103 O114 2.120 . S
Zn103 O115 2.114 . S
Zn103 O118 2.080 . S
C104 O109 1.166 . S
C104 O110 1.182 . S
C105 O111 1.167 . S
C105 O112 1.299 . S
O106 Zn103 2.080 . S
O106 C120 1.305 . S
O107 Zn101 1.920 1_554 S
O107 C120 1.234 1_554 S
C108 O113 1.167 . S
C108 O114 1.299 . S
O109 Zn103 2.114 . S
O109 C104 1.166 . S
O110 Zn102 1.905 . S
O110 C104 1.182 . S
O111 Zn102 1.898 . S
O111 C105 1.167 . S
O112 Zn103 2.120 . S
O112 C105 1.299 . S
O113 Zn101 1.898 . S
O113 C108 1.167 . S
O114 Zn103 2.120 . S
O114 C108 1.299 . S
O115 Zn103 2.114 . S
O115 C117 1.166 . S
O116 Zn101 1.905 . S
O116 C117 1.182 . S
C117 O115 1.166 . S
C117 O116 1.182 . S
O118 Zn103 2.080 . S
O118 C121 1.305 . S
O119 Zn102 1.920 . S
O119 C121 1.234 . S
C120 O106 1.305 . S
C120 O107 1.234 1_556 S
C121 O118 1.305 . S
C121 O119 1.234 . S
C20 C99 2.836 . S
C60 C105 1.530 . S
C25 C96 1.279 . S
C65 C121 2.876 . S
C23 C87 3.292 . S
C104 C63 3.729 . S
C44 C100 2.069 . S
C117 C2 2.049 . S
C84 C42 3.133 . S
C120 C31 3.751 . S
C83 C71 2.926 . S
C108 C4 1.253 . S
