# Generated by pormake.
# Topology sit, (3,6)-cn, num edge types: 1
# Building blocks:
#     Node 0, Type 0, BuildingBlock: OLANEW_clean_sbu_2, # of connection points: 3
#     Node 1, Type 0, BuildingBlock: OLANEW_clean_sbu_2, # of connection points: 3
#     Node 2, Type 0, BuildingBlock: OLANEW_clean_sbu_2, # of connection points: 3
#     Node 3, Type 0, BuildingBlock: OLANEW_clean_sbu_2, # of connection points: 3
#     Node 4, Type 1, BuildingBlock: MIDCAF_clean_sbu_0, # of connection points: 6
#     Node 5, Type 1, BuildingBlock: MIDCAF_clean_sbu_0, # of connection points: 6
#     Edge 6, Type (0, 1), BuildingBlock: OJICUG_clean_linker_0, # of connection points: 2
#     Edge 7, Type (0, 1), BuildingBlock: OJICUG_clean_linker_0, # of connection points: 2
#     Edge 8, Type (0, 1), BuildingBlock: OJICUG_clean_linker_0, # of connection points: 2
#     Edge 9, Type (0, 1), BuildingBlock: OJICUG_clean_linker_0, # of connection points: 2
#     Edge 10, Type (0, 1), BuildingBlock: OJICUG_clean_linker_0, # of connection points: 2
#     Edge 11, Type (0, 1), BuildingBlock: OJICUG_clean_linker_0, # of connection points: 2
#     Edge 12, Type (0, 1), BuildingBlock: OJICUG_clean_linker_0, # of connection points: 2
#     Edge 13, Type (0, 1), BuildingBlock: OJICUG_clean_linker_0, # of connection points: 2
#     Edge 14, Type (0, 1), BuildingBlock: OJICUG_clean_linker_0, # of connection points: 2
#     Edge 15, Type (0, 1), BuildingBlock: OJICUG_clean_linker_0, # of connection points: 2
#     Edge 16, Type (0, 1), BuildingBlock: OJICUG_clean_linker_0, # of connection points: 2
#     Edge 17, Type (0, 1), BuildingBlock: OJICUG_clean_linker_0, # of connection points: 2
# Relax obj value: 0.080
# Max RMSD: 0.185
# Mean RMSD: 0.105
data_MOF--net-sit--node1-OLANEW_clean_sbu_2--node2-MIDCAF_clean_sbu_0--edge1-OJICUG_clean_linker_0
_symmetry_space_group_name_H-M    P1
_symmetry_Int_Tables_number       1
_symmetry_cell_setting            triclinic
loop_
_symmetry_equiv_pos_as_xyz
'x, y, z'
_cell_length_a     17.023099
_cell_length_b     24.256046
_cell_length_c     30.62748
_cell_angle_alpha  86.59781
_cell_angle_beta   80.808864
_cell_angle_gamma 82.997359
loop_
_atom_site_label
_atom_site_type_symbol
_atom_site_fract_x
_atom_site_fract_y
_atom_site_fract_z
_atom_type_partial_charge
O0 O 0.30944 0.25678 -0.00902 0.0
Cd1 Cd 0.22706 0.17904 -0.00195 0.0
O2 O 0.2084 0.32257 -0.00197 0.0
Cd3 Cd 0.14183 0.40585 -0.00393 0.0
O4 O 0.0476 0.46209 0.97084 0.0
C5 C 0.05755 0.47409 0.92952 0.0
O6 O 0.12661 0.45726 0.90565 0.0
C7 C 0.28362 0.3083 -0.00987 0.0
C8 C 0.14414 0.15371 0.08149 0.0
O9 O 0.21662 0.13239 0.06978 0.0
O10 O 0.11189 0.18791 0.05413 0.0
O11 O 0.23766 0.73334 0.05378 0.0
Cd12 Cd 0.18091 0.83137 0.05127 0.0
O13 O 0.16306 0.73171 0.0027 0.0
Cd14 Cd 0.11829 0.70693 0.94478 0.0
O15 O 0.02796 0.68503 0.90829 0.0
C16 C 0.95755 0.70652 0.92284 0.0
O17 O 0.94727 0.73965 0.95622 0.0
C18 C 0.21626 0.70676 0.024 0.0
C19 C 0.14791 0.88638 0.13025 0.0
O20 O 0.09191 0.86746 0.11423 0.0
O21 O 0.21965 0.87809 0.10951 0.0
O22 O 0.65403 0.81587 0.48403 0.0
Cd23 Cd 0.55871 0.74599 0.49266 0.0
O24 O 0.56407 0.88707 0.50226 0.0
Cd25 Cd 0.52713 0.97552 0.51289 0.0
O26 O 0.42968 1.04219 0.51219 0.0
C27 C 0.42516 0.07525 0.47868 0.0
O28 O 0.48763 0.07528 0.44733 0.0
C29 C 0.63614 0.86785 0.4891 0.0
C30 C 0.53739 0.69225 0.5762 0.0
O31 O 0.593 0.67307 0.54578 0.0
O32 O 0.49292 0.73663 0.56703 0.0
O33 O 0.53131 0.18903 0.56714 0.0
Cd34 Cd 0.41938 0.25206 0.60371 0.0
O35 O 0.49028 0.24496 0.51544 0.0
Cd36 Cd 0.47443 0.28578 0.4516 0.0
O37 O 0.36901 0.28982 0.41957 0.0
C38 C 0.30892 0.27647 0.44659 0.0
O39 O 0.31721 0.26534 0.48825 0.0
C40 C 0.53729 0.20335 0.52633 0.0
C41 C 0.46722 0.34155 0.64156 0.0
O42 O 0.44206 0.30016 0.66536 0.0
O43 O 0.4708 0.34094 0.59952 0.0
Zn44 Zn 0.91907 0.18953 0.33492 0.0
Zn45 Zn 0.06105 0.99353 0.38877 0.0
Zn46 Zn -0.01353 0.08752 0.36315 0.0
C47 C 0.07601 0.99284 0.29713 0.0
C48 C 0.89859 0.99276 0.42349 0.0
O49 O 0.04637 0.15252 0.38531 0.0
O50 O -0.00437 0.23355 0.35804 0.0
C51 C -0.01718 0.13063 0.25987 0.0
O52 O 0.03015 1.03886 0.30381 0.0
O53 O 0.10351 0.9657 0.3289 0.0
O54 O 0.96558 0.96351 0.42129 0.0
O55 O 0.8935 1.04163 0.40436 0.0
O56 O 0.93909 0.17492 0.27109 0.0
O57 O 0.00444 0.0945 0.28958 0.0
O58 O 0.86184 0.0982 0.39736 0.0
O59 O 0.81325 0.18029 0.37102 0.0
C60 C 0.80413 0.13768 0.39631 0.0
O61 O 0.08637 0.10184 0.39857 0.0
O62 O 0.13479 1.0195 0.4239 0.0
C63 C 0.04415 0.20574 0.3804 0.0
C64 C 0.13508 0.07148 0.42064 0.0
Zn65 Zn 0.5261 0.64592 0.84334 0.0
Zn66 Zn 0.65683 0.43941 0.83293 0.0
Zn67 Zn 0.58556 0.5417 0.84041 0.0
C68 C 0.595 0.46614 0.75528 0.0
C69 C 0.52163 0.44034 0.90124 0.0
O70 O 0.67922 0.59035 0.85438 0.0
O71 O 0.62002 0.67671 0.85936 0.0
C72 C 0.5244 0.61747 0.75793 0.0
O73 O 0.57083 0.51161 0.77561 0.0
O74 O 0.63822 0.42754 0.77241 0.0
O75 O 0.58187 0.40919 0.88347 0.0
O76 O 0.51164 0.49216 0.8892 0.0
O77 O 0.50376 0.65828 0.78252 0.0
O78 O 0.55524 0.57075 0.77376 0.0
O79 O 0.48349 0.54871 0.89608 0.0
O80 O 0.43615 0.63754 0.89061 0.0
C81 C 0.43257 0.59019 0.90961 0.0
O82 O 0.71112 0.53392 0.85574 0.0
O83 O 0.76587 0.44791 0.84197 0.0
C84 C 0.68125 0.6421 0.86103 0.0
C85 C 0.77136 0.49579 0.85417 0.0
C86 C 0.01884 0.16222 0.13698 0.0
C87 C 0.09948 0.1406 0.12572 0.0
H88 H 0.91786 0.17444 0.18825 0.0
C89 C 0.13773 0.10861 0.15775 0.0
H90 H -0.01271 0.18647 0.11296 0.0
C91 C 0.0977 0.10168 0.20098 0.0
C92 C 0.01847 0.12599 0.21279 0.0
H93 H 0.19973 0.09114 0.15006 0.0
H94 H 0.13064 0.08052 0.22572 0.0
C95 C -0.02118 0.15502 0.18004 0.0
C96 C 0.05447 0.94555 0.18481 0.0
C97 C 0.13047 0.91651 0.17172 0.0
H98 H -0.02172 0.99421 0.23462 0.0
C99 C 0.18963 0.91586 0.19889 0.0
H100 H 0.0081 0.94714 0.16416 0.0
C101 C 0.1721 0.94173 0.23934 0.0
C102 C 0.09587 0.97006 0.25274 0.0
H103 H 0.24872 0.89388 0.18951 0.0
H104 H 0.21802 0.93926 0.26037 0.0
C105 C 0.03758 0.97274 0.22482 0.0
C106 C 0.46569 0.68859 0.65377 0.0
C107 C 0.52687 0.66589 0.62133 0.0
H108 H 0.41605 0.68981 0.7223 0.0
C109 C 0.58015 0.6205 0.63335 0.0
H110 H 0.42288 0.72294 0.64562 0.0
C111 C 0.57572 0.60101 0.67765 0.0
C112 C 0.51821 0.6269 0.71045 0.0
H113 H 0.6275 0.60174 0.60897 0.0
H114 H 0.62047 0.56843 0.68654 0.0
C115 C 0.46154 0.66939 0.69776 0.0
C116 C 0.44532 0.41531 0.69655 0.0
C117 C 0.49573 0.38671 0.66239 0.0
H118 H 0.43801 0.46713 0.75165 0.0
C119 C 0.57676 0.39538 0.65311 0.0
H120 H 0.38261 0.40895 0.70418 0.0
C121 C 0.60883 0.42739 0.68091 0.0
C122 C 0.55952 0.45254 0.71723 0.0
H123 H 0.61659 0.37331 0.62701 0.0
H124 H 0.673 0.42887 0.67618 0.0
C125 C 0.4768 0.449 0.7233 0.0
C126 C 0.31961 0.39928 0.95265 0.0
C127 C 0.34162 0.3492 0.97559 0.0
H128 H 0.35974 0.46845 0.91183 0.0
C129 C 0.42291 0.33431 0.979 0.0
H130 H 0.25847 0.41114 0.94769 0.0
C131 C 0.48121 0.36644 0.95737 0.0
C132 C 0.45953 0.4146 0.93227 0.0
H133 H 0.44201 0.29611 -0.00353 0.0
H134 H 0.5437 0.35209 0.95851 0.0
C135 C 0.37801 0.43206 0.93163 0.0
C136 C 0.89707 0.65503 0.87018 0.0
C137 C 0.88768 0.69239 0.90455 0.0
H138 H 0.83832 0.61111 0.82832 0.0
C139 C 0.81018 0.71517 0.92245 0.0
H140 H 0.95605 0.63708 0.85545 0.0
C141 C 0.74337 0.69966 0.90735 0.0
C142 C 0.75266 0.66085 0.87423 0.0
H143 H 0.80082 0.74431 0.94876 0.0
H144 H 0.68423 0.71685 0.92251 0.0
C145 C 0.82993 0.63968 0.85496 0.0
C146 C 0.914 0.51463 0.9323 0.0
C147 C -0.01269 0.4936 0.90754 0.0
H148 H 0.78693 0.53341 0.93387 0.0
C149 C -0.01009 0.48336 0.86261 0.0
H150 H 0.91033 0.52336 0.96689 0.0
C151 C 0.91944 0.48816 0.84418 0.0
C152 C 0.8456 0.50493 0.8699 0.0
H153 H 0.04536 0.46738 0.84253 0.0
H154 H 0.92207 0.47585 0.81049 0.0
C155 C 0.84355 0.52059 0.91346 0.0
C156 C 0.34382 0.64307 0.01621 0.0
C157 C 0.26423 0.6544 0.00828 0.0
H158 H 0.46248 0.60814 -0.00946 0.0
C159 C 0.23844 0.62243 0.97761 0.0
H160 H 0.36548 0.66556 0.04053 0.0
C161 C 0.29464 0.59009 0.94838 0.0
C162 C 0.37644 0.58775 0.951 0.0
H163 H 0.17629 0.62631 0.97332 0.0
H164 H 0.27524 0.57309 0.92048 0.0
C165 C 0.39954 0.60943 -0.01215 0.0
C166 C 0.77548 0.88808 0.48866 0.0
C167 C 0.69909 0.90521 0.47805 0.0
H168 H 0.89739 0.9037 0.48122 0.0
C169 C 0.68608 0.95524 0.45319 0.0
H170 H 0.78685 0.84981 0.5079 0.0
C171 C 0.74995 0.98604 0.43712 0.0
C172 C 0.82737 0.96741 0.44611 0.0
H173 H 0.62784 0.96869 0.44382 0.0
H174 H 0.73956 1.02232 0.41562 0.0
C175 C 0.83866 0.91909 0.47329 0.0
C176 C 0.17628 0.23979 0.45947 0.0
C177 C 0.23439 0.2666 0.43097 0.0
H178 H 0.06976 0.19938 0.46529 0.0
C179 C 0.2232 0.27961 0.38687 0.0
H180 H 0.18303 0.22917 0.49362 0.0
C181 C 0.15734 0.26328 0.371 0.0
C182 C 0.10278 0.23312 0.39886 0.0
H183 H 0.26676 0.30052 0.36425 0.0
H184 H 0.15174 0.27123 0.33638 0.0
C185 C 0.11136 0.2228 0.4434 0.0
C186 C 0.27662 0.08476 0.49872 0.0
C187 C 0.34451 0.09667 0.46861 0.0
H188 H 0.15479 0.06733 0.50637 0.0
C189 C 0.33447 0.11654 0.42549 0.0
H190 H 0.28175 0.07058 0.53247 0.0
C191 C 0.26086 0.11557 0.41086 0.0
C192 C 0.19708 0.09496 0.4393 0.0
H193 H 0.38522 0.12711 0.40172 0.0
H194 H 0.25655 0.1251 0.37625 0.0
C195 C 0.20371 0.08305 0.48394 0.0
C196 C 0.66953 0.14569 0.50594 0.0
C197 C 0.59949 0.1747 0.49318 0.0
H198 H 0.79004 0.10939 0.48444 0.0
C199 C 0.59242 0.17962 0.44804 0.0
H200 H 0.67621 0.14021 0.54056 0.0
C201 C 0.65758 0.16268 0.41611 0.0
C202 C 0.73023 0.13886 0.42877 0.0
H203 H 0.53758 0.19813 0.43713 0.0
H204 H 0.65257 0.17091 0.38144 0.0
C205 C 0.73446 0.12764 0.47388 0.0
loop_
_geom_bond_atom_site_label_1
_geom_bond_atom_site_label_2
_geom_bond_distance
_geom_bond_site_symmetry_2
_ccdc_geom_bond_type
O0 Cd1 2.300 . S
O0 C7 1.275 . S
Cd1 O0 2.300 . S
Cd1 O9 2.381 . S
Cd1 O10 2.378 . S
O2 Cd3 2.385 . S
O2 C7 1.255 . S
Cd3 O2 2.385 . S
Cd3 O4 2.317 . S
O4 Cd3 2.317 . S
O4 C5 1.232 1_454 S
C5 O4 1.232 1_656 S
C5 O6 1.218 1_655 S
O6 C5 1.218 1_455 S
C7 O0 1.275 . S
C7 O2 1.255 . S
C8 O9 1.258 . S
C8 O10 1.256 . S
O9 Cd1 2.381 . S
O9 C8 1.258 . S
O10 Cd1 2.378 . S
O10 C8 1.256 . S
O11 Cd12 2.300 . S
O11 C18 1.277 . S
Cd12 O11 2.300 . S
Cd12 O20 2.381 . S
Cd12 O21 2.378 1_455 S
O13 Cd14 2.385 1_455 S
O13 C18 1.254 1_556 S
Cd14 O13 2.385 1_655 S
Cd14 O15 2.317 . S
O15 Cd14 2.317 . S
O15 C16 1.232 . S
C16 O15 1.232 . S
C16 O17 1.218 . S
O17 C16 1.218 . S
C18 O11 1.277 . S
C18 O13 1.254 1_554 S
C19 O20 1.258 . S
C19 O21 1.256 1_455 S
O20 Cd12 2.381 . S
O20 C19 1.258 . S
O21 Cd12 2.378 1_655 S
O21 C19 1.256 1_655 S
O22 Cd23 2.300 . S
O22 C29 1.275 . S
Cd23 O22 2.300 . S
Cd23 O31 2.381 . S
Cd23 O32 2.378 . S
O24 Cd25 2.385 . S
O24 C29 1.255 . S
Cd25 O24 2.385 . S
Cd25 O26 2.317 . S
O26 Cd25 2.317 . S
O26 C27 1.232 . S
C27 O26 1.232 . S
C27 O28 1.218 . S
O28 C27 1.218 . S
C29 O22 1.275 . S
C29 O24 1.255 . S
C30 O31 1.258 . S
C30 O32 1.256 . S
O31 Cd23 2.381 . S
O31 C30 1.258 . S
O32 Cd23 2.378 . S
O32 C30 1.256 . S
O33 Cd34 2.300 . S
O33 C40 1.275 . S
Cd34 O33 2.300 . S
Cd34 O42 2.381 . S
Cd34 O43 2.378 . S
O35 Cd36 2.385 . S
O35 C40 1.255 . S
Cd36 O35 2.385 . S
Cd36 O37 2.317 . S
O37 Cd36 2.317 . S
O37 C38 1.232 . S
C38 O37 1.232 . S
C38 O39 1.218 . S
O39 C38 1.218 . S
C40 O33 1.275 . S
C40 O35 1.255 . S
C41 O42 1.258 . S
C41 O43 1.256 . S
O42 Cd34 2.381 . S
O42 C41 1.258 . S
O43 Cd34 2.378 . S
O43 C41 1.256 . S
Zn44 O50 1.920 . S
Zn44 O56 1.898 . S
Zn44 O59 1.905 1_455 S
Zn45 O53 1.905 . S
Zn45 O54 1.898 1_455 S
Zn45 O62 1.920 . S
Zn46 O49 2.080 . S
Zn46 O52 2.114 1_545 S
Zn46 O55 2.120 1_545 S
Zn46 O57 2.120 . S
Zn46 O58 2.114 1_455 S
Zn46 O61 2.080 1_545 S
C47 O52 1.166 . S
C47 O53 1.182 . S
C48 O54 1.167 . S
C48 O55 1.299 1_655 S
O49 Zn46 2.080 . S
O49 C63 1.305 . S
O50 Zn44 1.920 . S
O50 C63 1.234 . S
C51 O56 1.167 . S
C51 O57 1.299 . S
O52 Zn46 2.114 1_565 S
O52 C47 1.166 . S
O53 Zn45 1.905 . S
O53 C47 1.182 . S
O54 Zn45 1.898 1_655 S
O54 C48 1.167 . S
O55 Zn46 2.120 1_565 S
O55 C48 1.299 1_455 S
O56 Zn44 1.898 . S
O56 C51 1.167 . S
O57 Zn46 2.120 . S
O57 C51 1.299 . S
O58 Zn46 2.114 1_655 S
O58 C60 1.166 . S
O59 Zn44 1.905 1_655 S
O59 C60 1.182 . S
C60 O58 1.166 . S
C60 O59 1.182 . S
O61 Zn46 2.080 1_565 S
O61 C64 1.305 . S
O62 Zn45 1.920 . S
O62 C64 1.234 . S
C63 O49 1.305 . S
C63 O50 1.234 . S
C64 O61 1.305 . S
C64 O62 1.234 . S
Zn65 O71 1.920 . S
Zn65 O77 1.898 . S
Zn65 O80 1.905 . S
Zn66 O74 1.905 . S
Zn66 O75 1.898 . S
Zn66 O83 1.920 . S
Zn67 O70 2.080 . S
Zn67 O73 2.114 . S
Zn67 O76 2.120 . S
Zn67 O78 2.120 . S
Zn67 O79 2.114 . S
Zn67 O82 2.080 . S
C68 O73 1.166 . S
C68 O74 1.182 . S
C69 O75 1.167 . S
C69 O76 1.299 . S
O70 Zn67 2.080 . S
O70 C84 1.305 . S
O71 Zn65 1.920 . S
O71 C84 1.234 . S
C72 O77 1.167 . S
C72 O78 1.299 . S
O73 Zn67 2.114 . S
O73 C68 1.166 . S
O74 Zn66 1.905 . S
O74 C68 1.182 . S
O75 Zn66 1.898 . S
O75 C69 1.167 . S
O76 Zn67 2.120 . S
O76 C69 1.299 . S
O77 Zn65 1.898 . S
O77 C72 1.167 . S
O78 Zn67 2.120 . S
O78 C72 1.299 . S
O79 Zn67 2.114 . S
O79 C81 1.166 . S
O80 Zn65 1.905 . S
O80 C81 1.182 . S
C81 O79 1.166 . S
C81 O80 1.182 . S
O82 Zn67 2.080 . S
O82 C85 1.305 . S
O83 Zn66 1.920 . S
O83 C85 1.234 . S
C84 O70 1.305 . S
C84 O71 1.234 . S
C85 O82 1.305 . S
C85 O83 1.234 . S
C86 C87 1.387 . S
C86 H90 0.950 . S
C86 C95 1.390 . S
C87 C86 1.387 . S
C87 C89 1.387 . S
H88 C95 0.950 . S
C89 C87 1.387 . S
C89 C91 1.390 . S
C89 H93 0.950 . S
H90 C86 0.950 . S
C91 C89 1.390 . S
C91 C92 1.387 . S
C91 H94 0.950 . S
C92 C91 1.387 . S
C92 C95 1.387 . S
H93 C89 0.950 . S
H94 C91 0.950 . S
C95 C86 1.390 . S
C95 H88 0.950 . S
C95 C92 1.387 . S
C96 C97 1.387 1_655 S
C96 H100 0.950 . S
C96 C105 1.390 1_655 S
C97 C96 1.387 1_455 S
C97 C99 1.387 . S
H98 C105 0.950 1_655 S
C99 C97 1.387 . S
C99 C101 1.390 . S
C99 H103 0.950 . S
H100 C96 0.950 . S
C101 C99 1.390 . S
C101 C102 1.387 . S
C101 H104 0.950 . S
C102 C101 1.387 . S
C102 C105 1.387 . S
H103 C99 0.950 . S
H104 C101 0.950 . S
C105 C96 1.390 1_455 S
C105 H98 0.950 1_455 S
C105 C102 1.387 . S
C106 C107 1.387 . S
C106 H110 0.950 . S
C106 C115 1.390 . S
C107 C106 1.387 . S
C107 C109 1.387 . S
H108 C115 0.950 . S
C109 C107 1.387 . S
C109 C111 1.390 . S
C109 H113 0.950 . S
H110 C106 0.950 . S
C111 C109 1.390 . S
C111 C112 1.387 . S
C111 H114 0.950 . S
C112 C111 1.387 . S
C112 C115 1.387 . S
H113 C109 0.950 . S
H114 C111 0.950 . S
C115 C106 1.390 . S
C115 H108 0.950 . S
C115 C112 1.387 . S
C116 C117 1.387 . S
C116 H120 0.950 . S
C116 C125 1.390 . S
C117 C116 1.387 . S
C117 C119 1.387 . S
H118 C125 0.950 . S
C119 C117 1.387 . S
C119 C121 1.390 . S
C119 H123 0.950 . S
H120 C116 0.950 . S
C121 C119 1.390 . S
C121 C122 1.387 . S
C121 H124 0.950 . S
C122 C121 1.387 . S
C122 C125 1.387 . S
H123 C119 0.950 . S
H124 C121 0.950 . S
C125 C116 1.390 . S
C125 H118 0.950 . S
C125 C122 1.387 . S
C126 C127 1.387 . S
C126 H130 0.950 . S
C126 C135 1.390 . S
C127 C126 1.387 . S
C127 C129 1.387 1_556 S
H128 C135 0.950 . S
C129 C127 1.387 1_554 S
C129 C131 1.390 . S
C129 H133 0.950 . S
H130 C126 0.950 . S
C131 C129 1.390 . S
C131 C132 1.387 1_554 S
C131 H134 0.950 . S
C132 C131 1.387 1_556 S
C132 C135 1.387 . S
H133 C129 0.950 . S
H134 C131 0.950 . S
C135 C126 1.390 . S
C135 H128 0.950 . S
C135 C132 1.387 . S
C136 C137 1.387 . S
C136 H140 0.950 . S
C136 C145 1.390 . S
C137 C136 1.387 . S
C137 C139 1.387 1_556 S
H138 C145 0.950 . S
C139 C137 1.387 1_554 S
C139 C141 1.389 . S
C139 H143 0.950 . S
H140 C136 0.950 . S
C141 C139 1.389 . S
C141 C142 1.390 1_554 S
C141 H144 0.948 . S
C142 C141 1.390 1_556 S
C142 C145 1.387 . S
H143 C139 0.950 . S
H144 C141 0.948 . S
C145 C136 1.390 . S
C145 H138 0.950 . S
C145 C142 1.387 . S
C146 C147 1.387 . S
C146 H150 0.950 . S
C146 C155 1.390 . S
C147 C146 1.387 . S
C147 C149 1.387 . S
H148 C155 0.950 . S
C149 C147 1.387 . S
C149 C151 1.390 . S
C149 H153 0.950 . S
H150 C146 0.950 . S
C151 C149 1.390 . S
C151 C152 1.387 . S
C151 H154 0.950 . S
C152 C151 1.387 . S
C152 C155 1.387 . S
H153 C149 0.950 . S
H154 C151 0.950 . S
C155 C146 1.390 . S
C155 H148 0.950 . S
C155 C152 1.387 . S
C156 C157 1.387 . S
C156 H160 0.950 1_556 S
C156 C165 1.390 . S
C157 C156 1.387 . S
C157 C159 1.387 . S
H158 C165 0.950 . S
C159 C157 1.387 . S
C159 C161 1.390 . S
C159 H163 0.950 . S
H160 C156 0.950 1_554 S
C161 C159 1.390 . S
C161 C162 1.387 . S
C161 H164 0.950 . S
C162 C161 1.387 . S
C162 C165 1.387 . S
H163 C159 0.950 . S
H164 C161 0.950 . S
C165 C156 1.390 . S
C165 H158 0.950 . S
C165 C162 1.387 . S
C166 C167 1.387 . S
C166 H170 0.950 . S
C166 C175 1.390 . S
C167 C166 1.387 . S
C167 C169 1.387 . S
H168 C175 0.950 . S
C169 C167 1.387 . S
C169 C171 1.390 . S
C169 H173 0.950 . S
H170 C166 0.950 . S
C171 C169 1.390 . S
C171 C172 1.387 . S
C171 H174 0.950 . S
C172 C171 1.387 . S
C172 C175 1.387 . S
H173 C169 0.950 . S
H174 C171 0.950 . S
C175 C166 1.390 . S
C175 H168 0.950 . S
C175 C172 1.387 . S
C176 C177 1.387 . S
C176 H180 0.950 . S
C176 C185 1.390 . S
C177 C176 1.387 . S
C177 C179 1.387 . S
H178 C185 0.950 . S
C179 C177 1.387 . S
C179 C181 1.390 . S
C179 H183 0.950 . S
H180 C176 0.950 . S
C181 C179 1.390 . S
C181 C182 1.387 . S
C181 H184 0.950 . S
C182 C181 1.387 . S
C182 C185 1.387 . S
H183 C179 0.950 . S
H184 C181 0.950 . S
C185 C176 1.390 . S
C185 H178 0.950 . S
C185 C182 1.387 . S
C186 C187 1.387 . S
C186 H190 0.950 . S
C186 C195 1.390 . S
C187 C186 1.387 . S
C187 C189 1.387 . S
H188 C195 0.950 . S
C189 C187 1.387 . S
C189 C191 1.390 . S
C189 H193 0.950 . S
H190 C186 0.950 . S
C191 C189 1.390 . S
C191 C192 1.387 . S
C191 H194 0.950 . S
C192 C191 1.387 . S
C192 C195 1.387 . S
H193 C189 0.950 . S
H194 C191 0.950 . S
C195 C186 1.390 . S
C195 H188 0.950 . S
C195 C192 1.387 . S
C196 C197 1.387 . S
C196 H200 0.950 . S
C196 C205 1.390 . S
C197 C196 1.387 . S
C197 C199 1.387 . S
H198 C205 0.950 . S
C199 C197 1.387 . S
C199 C201 1.390 . S
C199 H203 0.950 . S
H200 C196 0.950 . S
C201 C199 1.390 . S
C201 C202 1.387 . S
C201 H204 0.950 . S
C202 C201 1.387 . S
C202 C205 1.387 . S
H203 C199 0.950 . S
H204 C201 0.950 . S
C205 C196 1.390 . S
C205 H198 0.950 . S
C205 C202 1.387 . S
C92 C51 1.486 . S
C87 C8 1.536 . S
C102 C47 1.417 . S
C97 C19 1.521 . S
C112 C72 1.487 . S
C107 C30 1.536 . S
C117 C41 1.521 . S
C122 C68 1.418 . S
C127 C7 1.322 1_556 S
C132 C69 1.189 . S
C142 C84 1.173 . S
C137 C16 1.268 . S
C147 C5 1.406 . S
C152 C85 1.529 . S
C162 C81 1.575 . S
C157 C18 1.718 1_556 S
C172 C48 1.184 . S
C167 C29 1.321 . S
C177 C38 1.267 . S
C182 C63 1.171 . S
C192 C64 1.529 . S
C187 C27 1.408 . S
C202 C60 1.575 . S
C197 C40 1.719 . S
