# Generated by pormake.
# Topology pts, (4,4)-cn, num edge types: 1
# Building blocks:
#     Node 0, Type 0, BuildingBlock: ESEHIV_clean_sbu_0, # of connection points: 4
#     Node 1, Type 0, BuildingBlock: ESEHIV_clean_sbu_0, # of connection points: 4
#     Node 2, Type 1, BuildingBlock: AZAVOO_clean_sbu_0, # of connection points: 4
#     Node 3, Type 1, BuildingBlock: AZAVOO_clean_sbu_0, # of connection points: 4
#     Edge 4, Type (0, 1), BuildingBlock: EZIPEK_clean_linker_0, # of connection points: 2
#     Edge 5, Type (0, 1), BuildingBlock: EZIPEK_clean_linker_0, # of connection points: 2
#     Edge 6, Type (0, 1), BuildingBlock: EZIPEK_clean_linker_0, # of connection points: 2
#     Edge 7, Type (0, 1), BuildingBlock: EZIPEK_clean_linker_0, # of connection points: 2
#     Edge 8, Type (0, 1), BuildingBlock: EZIPEK_clean_linker_0, # of connection points: 2
#     Edge 9, Type (0, 1), BuildingBlock: EZIPEK_clean_linker_0, # of connection points: 2
#     Edge 10, Type (0, 1), BuildingBlock: EZIPEK_clean_linker_0, # of connection points: 2
#     Edge 11, Type (0, 1), BuildingBlock: EZIPEK_clean_linker_0, # of connection points: 2
# Relax obj value: 0.001
# Max RMSD: 0.095
# Mean RMSD: 0.061
data_MOF--net-pts--node1-ESEHIV_clean_sbu_0--node2-AZAVOO_clean_sbu_0--edge1-EZIPEK_clean_linker_0
_symmetry_space_group_name_H-M    P1
_symmetry_Int_Tables_number       1
_symmetry_cell_setting            triclinic
loop_
_symmetry_equiv_pos_as_xyz
'x, y, z'
_cell_length_a     17.970804
_cell_length_b     18.957118
_cell_length_c     28.398263
_cell_angle_alpha  95.492069
_cell_angle_beta   100.78359
_cell_angle_gamma 89.61548
loop_
_atom_site_label
_atom_site_type_symbol
_atom_site_fract_x
_atom_site_fract_y
_atom_site_fract_z
_atom_type_partial_charge
Cu0 Cu 0.58983 0.06075 0.01793 0.0
N1 N 0.6412 0.01392 0.9729 0.0
N2 N 0.71904 0.00864 0.92015 0.0
C3 C 0.68713 0.05051 0.95151 0.0
C4 C 0.69236 0.94265 0.9215 0.0
C5 C 0.64393 0.94602 0.95436 0.0
O6 O 0.66849 0.10729 0.06756 0.0
C7 C 0.46456 0.06913 0.95249 0.0
O8 O 0.4743 1.00094 0.95578 0.0
H9 H 0.69658 0.1072 0.95861 0.0
H10 H 0.61291 0.90247 0.96383 0.0
N11 N 0.53522 0.00892 0.05289 0.0
N12 N 0.45732 0.99958 0.10462 0.0
C13 C 0.48863 0.04318 0.07906 0.0
C14 C 0.53346 0.94062 0.06211 0.0
C15 C 0.48497 0.93472 0.09433 0.0
C16 C 0.71795 0.06216 0.08326 0.0
O17 O 0.71159 0.9967 0.063 0.0
H18 H 0.47944 0.09978 0.08034 0.0
H19 H 0.56638 0.89882 0.04764 0.0
O20 O 0.51194 0.11301 0.97908 0.0
H21 H 0.70637 0.89588 0.90006 0.0
H22 H 0.47251 0.88722 0.10987 0.0
Cu23 Cu 0.13604 0.59697 0.52997 0.0
N24 N 0.19817 0.54646 0.57539 0.0
N25 N 0.20878 0.47243 0.63312 0.0
C26 C 0.17169 0.48732 0.5895 0.0
C27 C 0.26241 0.52355 0.64683 0.0
C28 C 0.25656 0.56853 0.61082 0.0
O29 O 0.07091 0.52661 0.48742 0.0
C30 C 0.1292 0.7166 0.59208 0.0
O31 O 0.20235 0.7132 0.59346 0.0
H32 H 0.12097 0.45981 0.57052 0.0
H33 H 0.28926 0.61653 0.61242 0.0
N34 N 0.1827 0.64589 0.48952 0.0
N35 N 0.17947 0.72204 0.43409 0.0
C36 C 0.14128 0.67209 0.45067 0.0
C37 C 0.25057 0.67876 0.49704 0.0
C38 C 0.2485 0.72626 0.46282 0.0
C39 C 0.10522 0.48854 0.45885 0.0
O40 O 0.17722 0.50141 0.4598 0.0
H41 H 0.0815 0.66058 0.43825 0.0
H42 H 0.29536 0.67371 0.52774 0.0
O43 O 0.08551 0.66949 0.56586 0.0
H44 H 0.30046 0.52993 0.68138 0.0
H45 H 0.29179 0.76517 0.46168 0.0
Mg46 Mg 0.14411 0.08243 0.29768 0.0
O47 O 0.02964 0.0745 0.24393 0.0
O48 O 0.94056 0.06404 0.2887 0.0
Mg49 Mg 0.99403 0.05117 0.36637 0.0
C50 C 0.96019 0.07099 0.24844 0.0
C51 C 0.27081 0.078 0.244 0.0
O52 O 0.29238 0.04385 0.28227 0.0
O53 O 0.11454 0.19504 0.32759 0.0
O54 O 0.03035 0.167 0.37219 0.0
O55 O 0.16496 0.96534 0.29342 0.0
O56 O 0.0987 0.02081 0.34209 0.0
C57 C 0.07099 0.21244 0.35777 0.0
C58 C 0.12766 0.96249 0.32787 0.0
O59 O 0.20906 0.1124 0.24009 0.0
Mg60 Mg 0.03736 0.09504 0.74244 0.0
O61 O 0.1534 0.08806 0.79363 0.0
O62 O 0.24099 0.05877 0.7488 0.0
Mg63 Mg 0.18496 0.05825 0.66964 0.0
C64 C 0.22203 0.07445 0.78965 0.0
C65 C 0.91174 0.09214 0.79531 0.0
O66 O 0.88918 0.06009 0.75192 0.0
O67 O 0.0746 0.20764 0.73114 0.0
O68 O 0.16015 0.17676 0.6848 0.0
O69 O 1.01429 0.97722 0.73312 0.0
O70 O 0.07813 0.03229 0.68886 0.0
C71 C 0.12291 0.22377 0.70581 0.0
C72 C 0.05211 0.9736 0.69863 0.0
O73 O 0.97522 0.1251 0.80474 0.0
C74 C 0.33012 0.0091 0.1258 0.0
C75 C 0.40925 0.02093 0.13869 0.0
C76 C 0.39266 0.08677 0.21464 0.0
C77 C 0.31471 0.06767 0.20445 0.0
N78 N 0.21014 0.00313 0.15256 0.0
N79 N 0.51797 0.06449 0.19656 0.0
C80 C 0.2833 0.02741 0.16035 0.0
C81 C 0.44106 0.05834 0.18342 0.0
N82 N 0.29985 0.98148 0.0801 0.0
N83 N 0.41988 0.13335 0.25378 0.0
H84 H 0.5545 0.04382 0.17437 0.0
H85 H 0.5457 0.08472 0.23065 0.0
H86 H 0.38535 0.15592 0.27679 0.0
H87 H 0.47451 0.15468 0.26096 0.0
H88 H 0.24187 0.9786 0.06645 0.0
H89 H 0.33327 0.96642 0.05457 0.0
H90 H 0.18704 0.96679 0.12377 0.0
H91 H 0.17364 0.01527 0.17662 0.0
C92 C 0.24179 0.37207 0.6834 0.0
C93 C 0.18722 0.41865 0.66106 0.0
C94 C 0.08545 0.34462 0.67796 0.0
C95 C 0.14064 0.2989 0.70069 0.0
N96 N 0.26794 0.28872 0.74354 0.0
N97 N 0.06015 0.4635 0.65496 0.0
C98 C 0.21787 0.31941 0.70959 0.0
C99 C 0.10976 0.40952 0.66406 0.0
N100 N 0.31509 0.37427 0.67704 0.0
N101 N 1.01077 0.32518 0.66746 0.0
H102 H 0.07771 0.51329 0.6482 0.0
H103 H 1.00424 0.46143 0.65995 0.0
H104 H 0.99059 0.27852 0.67746 0.0
H105 H 0.9698 0.35346 0.64612 0.0
H106 H 0.35491 0.33692 0.68964 0.0
H107 H 0.33402 0.40813 0.6549 0.0
H108 H 0.32459 0.30457 0.75368 0.0
H109 H 0.24912 0.25455 0.76566 0.0
C110 C 0.83392 0.1254 0.13353 0.0
C111 C 0.77371 0.07573 0.12875 0.0
C112 C 0.84113 0.01903 0.19784 0.0
C113 C 0.89867 0.07191 0.20555 0.0
N114 N 0.94137 0.18477 0.18665 0.0
N115 N 0.71024 0.98939 0.16487 0.0
C116 C 0.89283 0.12797 0.17509 0.0
C117 C 0.77423 0.0273 0.16383 0.0
N118 N 0.8366 0.16801 0.09774 0.0
N119 N 0.85185 0.95877 0.22106 0.0
H120 H 0.65941 0.99543 0.14104 0.0
H121 H 0.70548 0.95819 0.19248 0.0
H122 H 0.90221 0.94814 0.24408 0.0
H123 H 0.81429 0.91577 0.21313 0.0
H124 H 0.88352 0.19941 0.0967 0.0
H125 H 0.79379 0.16835 0.06738 0.0
H126 H 0.93488 0.23014 0.16835 0.0
H127 H 0.98408 0.18943 0.2172 0.0
C128 C 0.08091 0.77583 0.66312 0.0
C129 C 0.09993 0.77957 0.61723 0.0
C130 C 0.0713 0.90544 0.62175 0.0
C131 C 0.06517 0.9052 0.67086 0.0
N132 N 0.08271 0.8393 0.74132 0.0
N133 N 0.13702 0.8541 0.56084 0.0
C134 C 0.07417 0.84001 0.69254 0.0
C135 C 0.1024 0.84612 0.59887 0.0
N136 N 0.0721 0.71145 0.67933 0.0
N137 N 0.04452 0.96043 0.59586 0.0
H138 H 0.16236 0.81243 0.54323 0.0
H139 H 0.14644 0.90377 0.54994 0.0
H140 H 1.0134 1.00175 0.60921 0.0
H141 H 0.04421 0.95952 0.55902 0.0
H142 H 0.05153 0.70577 0.71074 0.0
H143 H 0.07914 0.66368 0.65919 0.0
H144 H 0.09575 0.79364 0.75876 0.0
H145 H 0.0866 0.88505 0.76507 0.0
C146 C 0.32713 0.06602 0.91924 0.0
C147 C 0.40024 0.09031 0.91623 0.0
C148 C 0.35277 0.11706 0.83338 0.0
C149 C 0.283 0.08124 0.83369 0.0
N150 N 0.21055 0.01023 0.87597 0.0
N151 N 0.48562 0.13337 0.8692 0.0
C152 C 0.27146 0.05341 0.87659 0.0
C153 C 0.41371 0.11523 0.8732 0.0
N154 N 0.31158 0.05399 0.96309 0.0
N155 N 0.36097 0.15439 0.79579 0.0
H156 H 0.53132 0.1354 0.89795 0.0
H157 H 0.50091 0.14208 0.83659 0.0
H158 H 0.31963 0.15706 0.76516 0.0
H159 H 0.40675 0.18829 0.7968 0.0
H160 H 0.25744 0.04214 0.96848 0.0
H161 H 0.35163 0.06338 0.99484 0.0
H162 H 0.20353 0.98334 0.90517 0.0
H163 H 0.17143 0.99445 0.84482 0.0
C164 C 0.07365 0.41526 0.37942 0.0
C165 C 0.07101 0.42405 0.42931 0.0
C166 C 0.07351 0.29637 0.43195 0.0
C167 C 0.07167 0.28618 0.38138 0.0
N168 N 0.05 0.33711 0.30521 0.0
N169 N 0.03679 0.37248 0.49661 0.0
C170 C 0.06568 0.34601 0.35437 0.0
C171 C 0.05972 0.36443 0.4533 0.0
N172 N 0.08487 0.47308 0.35628 0.0
N173 N 0.09393 0.24266 0.46048 0.0
H174 H 1.02063 0.42141 0.51122 0.0
H175 H 0.02375 0.32963 0.51418 0.0
H176 H 0.11275 0.19368 0.44762 0.0
H177 H 0.10181 0.25006 0.49795 0.0
H178 H 0.09637 0.46949 0.32151 0.0
H179 H 0.08565 0.52466 0.373 0.0
H180 H 0.03856 0.37911 0.28393 0.0
H181 H 0.04112 0.28745 0.28576 0.0
C182 C 0.84774 0.02101 0.90278 0.0
C183 C 0.76885 0.03188 0.8903 0.0
C184 C 0.78884 0.09945 0.82425 0.0
C185 C 0.86654 0.08093 0.83279 0.0
N186 N 0.96881 0.01614 0.87687 0.0
N187 N 0.66209 0.07437 0.83687 0.0
C188 C 0.8961 0.04019 0.87154 0.0
C189 C 0.73882 0.06956 0.85049 0.0
N190 N 0.87631 0.99341 0.94504 0.0
N191 N 0.76339 0.14672 0.79157 0.0
H192 H 0.62438 0.05193 0.85518 0.0
H193 H 0.63575 0.09511 0.8054 0.0
H194 H 0.79917 0.17046 0.77251 0.0
H195 H 0.70899 0.16744 0.78667 0.0
H196 H 0.93405 0.99097 0.95899 0.0
H197 H 0.84179 0.97818 0.96814 0.0
H198 H 0.99039 0.97951 0.90085 0.0
H199 H 1.0064 0.02857 0.85499 0.0
C200 C 0.11072 0.83344 0.42121 0.0
C201 C 0.14754 0.77418 0.40267 0.0
C202 C 0.13881 0.82935 0.32772 0.0
C203 C 0.12421 0.89608 0.35197 0.0
N204 N 0.11357 0.95989 0.42973 0.0
N205 N 0.19628 0.71394 0.33697 0.0
C206 C 0.11353 0.89803 0.40071 0.0
C207 C 0.1615 0.77149 0.35535 0.0
N208 N 0.07359 0.82878 0.4584 0.0
N209 N 0.12795 0.82012 0.27864 0.0
H210 H 0.2102 0.66989 0.35617 0.0
H211 H 0.21456 0.7121 0.30413 0.0
H212 H 0.10307 0.85859 0.25702 0.0
H213 H 0.13378 0.77121 0.25962 0.0
H214 H 0.04067 0.87005 0.47007 0.0
H215 H 0.06838 0.78155 0.47347 0.0
H216 H 0.11053 0.96059 0.4661 0.0
H217 H 0.12801 0.00923 0.42094 0.0
loop_
_geom_bond_atom_site_label_1
_geom_bond_atom_site_label_2
_geom_bond_distance
_geom_bond_site_symmetry_2
_ccdc_geom_bond_type
Cu0 N1 1.999 1_554 S
Cu0 O6 1.974 . S
Cu0 N11 1.985 . S
Cu0 O20 1.959 1_554 S
N1 Cu0 1.999 1_556 S
N1 C3 1.263 . S
N1 C5 1.389 . S
N2 C3 1.358 . S
N2 C4 1.400 . S
C3 N1 1.263 . S
C3 N2 1.358 . S
C3 H9 0.930 . S
C4 N2 1.400 . S
C4 C5 1.351 . S
C4 H21 0.930 . S
C5 N1 1.389 . S
C5 C4 1.351 . S
C5 H10 0.930 . S
O6 Cu0 1.974 . S
O6 C16 1.282 . S
C7 O8 1.261 1_545 S
C7 O20 1.251 . S
O8 C7 1.261 1_565 S
H9 C3 0.930 . S
H10 C5 0.930 . S
N11 Cu0 1.985 . S
N11 C13 1.335 . S
N11 C14 1.390 . S
N12 C13 1.345 . S
N12 C15 1.336 . S
C13 N11 1.335 . S
C13 N12 1.345 . S
C13 H18 0.930 . S
C14 N11 1.390 . S
C14 C15 1.346 . S
C14 H19 0.930 . S
C15 N12 1.336 . S
C15 C14 1.346 . S
C15 H22 0.929 . S
C16 O6 1.282 . S
C16 O17 1.216 1_545 S
O17 C16 1.216 1_565 S
H18 C13 0.930 . S
H19 C14 0.930 . S
O20 Cu0 1.959 1_556 S
O20 C7 1.251 . S
H21 C4 0.930 . S
H22 C15 0.929 . S
Cu23 N24 1.999 . S
Cu23 O29 1.974 . S
Cu23 N34 1.985 . S
Cu23 O43 1.959 . S
N24 Cu23 1.999 . S
N24 C26 1.263 . S
N24 C28 1.389 . S
N25 C26 1.358 . S
N25 C27 1.400 . S
C26 N24 1.263 . S
C26 N25 1.358 . S
C26 H32 0.930 . S
C27 N25 1.400 . S
C27 C28 1.351 . S
C27 H44 0.930 1_455 S
C28 N24 1.389 . S
C28 C27 1.351 . S
C28 H33 0.930 1_455 S
O29 Cu23 1.974 . S
O29 C39 1.282 . S
C30 O31 1.261 . S
C30 O43 1.251 . S
O31 C30 1.261 . S
H32 C26 0.930 . S
H33 C28 0.930 1_655 S
N34 Cu23 1.985 . S
N34 C36 1.335 . S
N34 C37 1.390 . S
N35 C36 1.345 . S
N35 C38 1.336 . S
C36 N34 1.335 . S
C36 N35 1.345 . S
C36 H41 0.930 . S
C37 N34 1.390 . S
C37 C38 1.346 . S
C37 H42 0.930 . S
C38 N35 1.336 . S
C38 C37 1.346 . S
C38 H45 0.929 . S
C39 O29 1.282 . S
C39 O40 1.216 . S
O40 C39 1.216 . S
H41 C36 0.930 . S
H42 C37 0.930 . S
O43 Cu23 1.959 . S
O43 C30 1.251 . S
H44 C27 0.930 1_655 S
H45 C38 0.929 . S
Mg46 O47 2.028 . S
Mg46 O53 1.986 . S
Mg46 O55 2.114 1_545 S
Mg46 O56 2.251 . S
Mg46 O59 2.010 . S
O47 Mg46 2.028 . S
O47 C50 1.250 1_455 S
O48 Mg49 2.028 . S
O48 C50 1.248 . S
Mg49 O48 2.028 . S
Mg49 O54 2.032 1_655 S
Mg49 O56 2.079 1_655 S
C50 O47 1.250 1_655 S
C50 O48 1.248 . S
C51 O52 1.264 . S
C51 O59 1.249 . S
O52 C51 1.264 . S
O53 Mg46 1.986 . S
O53 C57 1.246 . S
O54 Mg49 2.032 1_455 S
O54 C57 1.259 . S
O55 Mg46 2.114 1_565 S
O55 C58 1.252 . S
O56 Mg46 2.251 . S
O56 Mg49 2.079 1_455 S
O56 C58 1.273 1_545 S
C57 O53 1.246 . S
C57 O54 1.259 . S
C58 O55 1.252 . S
C58 O56 1.273 1_565 S
O59 Mg46 2.010 . S
O59 C51 1.249 . S
Mg60 O61 2.028 . S
Mg60 O67 1.986 . S
Mg60 O69 2.114 1_545 S
Mg60 O70 2.251 1_545 S
Mg60 O73 2.010 1_455 S
O61 Mg60 2.028 . S
O61 C64 1.250 . S
O62 Mg63 2.028 . S
O62 C64 1.248 . S
Mg63 O62 2.028 . S
Mg63 O68 2.032 . S
Mg63 O70 2.079 1_545 S
C64 O61 1.250 . S
C64 O62 1.248 . S
C65 O66 1.264 . S
C65 O73 1.249 . S
O66 C65 1.264 . S
O67 Mg60 1.986 . S
O67 C71 1.246 . S
O68 Mg63 2.032 . S
O68 C71 1.259 . S
O69 Mg60 2.114 1_565 S
O69 C72 1.252 . S
O70 Mg60 2.251 1_565 S
O70 Mg63 2.079 1_565 S
O70 C72 1.273 . S
C71 O67 1.246 . S
C71 O68 1.259 . S
C72 O69 1.252 . S
C72 O70 1.273 . S
O73 Mg60 2.010 1_655 S
O73 C65 1.249 . S
C74 C75 1.363 . S
C74 C80 1.379 . S
C74 N82 1.356 . S
C75 C74 1.363 . S
C75 C81 1.363 . S
C76 C77 1.363 . S
C76 C81 1.379 . S
C76 N83 1.356 . S
C77 C76 1.363 . S
C77 C80 1.363 . S
N78 C80 1.356 . S
N78 H90 0.984 1_545 S
N78 H91 0.985 . S
N79 C81 1.356 . S
N79 H84 0.984 . S
N79 H85 0.985 . S
C80 C74 1.379 . S
C80 C77 1.363 . S
C80 N78 1.356 . S
C81 C75 1.363 . S
C81 C76 1.379 . S
C81 N79 1.356 . S
N82 C74 1.356 . S
N82 H88 0.984 1_545 S
N82 H89 0.984 . S
N83 C76 1.356 . S
N83 H86 0.984 . S
N83 H87 0.985 . S
H84 N79 0.984 . S
H85 N79 0.985 . S
H86 N83 0.984 . S
H87 N83 0.985 . S
H88 N82 0.984 1_565 S
H89 N82 0.984 . S
H90 N78 0.984 1_565 S
H91 N78 0.985 . S
C92 C93 1.363 . S
C92 C98 1.379 . S
C92 N100 1.356 . S
C93 C92 1.363 . S
C93 C99 1.363 . S
C94 C95 1.363 . S
C94 C99 1.379 . S
C94 N101 1.356 1_455 S
C95 C94 1.363 . S
C95 C98 1.363 . S
N96 C98 1.356 . S
N96 H108 0.984 . S
N96 H109 0.985 . S
N97 C99 1.356 1_655 S
N97 H102 0.984 . S
N97 H103 0.985 . S
C98 C92 1.379 . S
C98 C95 1.363 . S
C98 N96 1.356 . S
C99 C93 1.363 . S
C99 C94 1.379 . S
C99 N97 1.356 1_455 S
N100 C92 1.356 . S
N100 H106 0.984 . S
N100 H107 0.984 . S
N101 C94 1.356 1_655 S
N101 H104 0.984 1_655 S
N101 H105 0.985 . S
H102 N97 0.984 . S
H103 N97 0.985 . S
H104 N101 0.984 1_455 S
H105 N101 0.985 . S
H106 N100 0.984 . S
H107 N100 0.984 . S
H108 N96 0.984 . S
H109 N96 0.985 . S
C110 C111 1.363 . S
C110 C116 1.379 . S
C110 N118 1.356 . S
C111 C110 1.363 . S
C111 C117 1.363 . S
C112 C113 1.363 . S
C112 C117 1.379 . S
C112 N119 1.356 1_545 S
C113 C112 1.363 . S
C113 C116 1.363 . S
N114 C116 1.356 . S
N114 H126 0.984 . S
N114 H127 0.985 . S
N115 C117 1.356 1_565 S
N115 H120 0.984 . S
N115 H121 0.985 . S
C116 C110 1.379 . S
C116 C113 1.363 . S
C116 N114 1.356 . S
C117 C111 1.363 . S
C117 C112 1.379 . S
C117 N115 1.356 1_545 S
N118 C110 1.356 . S
N118 H124 0.984 . S
N118 H125 0.984 . S
N119 C112 1.356 1_565 S
N119 H122 0.984 1_565 S
N119 H123 0.985 . S
H120 N115 0.984 . S
H121 N115 0.985 . S
H122 N119 0.984 1_545 S
H123 N119 0.985 . S
H124 N118 0.984 . S
H125 N118 0.984 . S
H126 N114 0.984 . S
H127 N114 0.985 . S
C128 C129 1.363 . S
C128 C134 1.379 . S
C128 N136 1.356 . S
C129 C128 1.363 . S
C129 C135 1.363 . S
C130 C131 1.363 . S
C130 C135 1.379 . S
C130 N137 1.356 . S
C131 C130 1.363 . S
C131 C134 1.363 . S
N132 C134 1.356 . S
N132 H144 0.984 1_455 S
N132 H145 0.985 . S
N133 C135 1.356 . S
N133 H138 0.984 . S
N133 H139 0.985 . S
C134 C128 1.379 . S
C134 C131 1.363 . S
C134 N132 1.356 . S
C135 C129 1.363 . S
C135 C130 1.379 . S
C135 N133 1.356 . S
N136 C128 1.356 . S
N136 H142 0.989 . S
N136 H143 0.984 . S
N137 C130 1.356 . S
N137 H140 0.984 . S
N137 H141 0.985 . S
H138 N133 0.984 . S
H139 N133 0.985 . S
H140 N137 0.984 . S
H141 N137 0.985 . S
H142 N136 0.989 . S
H143 N136 0.984 . S
H144 N132 0.984 1_655 S
H145 N132 0.985 . S
C146 C147 1.363 . S
C146 C152 1.379 . S
C146 N154 1.356 . S
C147 C146 1.363 . S
C147 C153 1.363 . S
C148 C149 1.363 . S
C148 C153 1.379 . S
C148 N155 1.356 . S
C149 C148 1.363 . S
C149 C152 1.363 . S
N150 C152 1.356 . S
N150 H162 0.984 . S
N150 H163 0.985 . S
N151 C153 1.356 . S
N151 H156 0.984 . S
N151 H157 0.985 . S
C152 C146 1.379 . S
C152 C149 1.363 . S
C152 N150 1.356 . S
C153 C147 1.363 . S
C153 C148 1.379 . S
C153 N151 1.356 . S
N154 C146 1.356 . S
N154 H160 0.987 . S
N154 H161 0.984 . S
N155 C148 1.356 . S
N155 H158 0.984 . S
N155 H159 0.985 . S
H156 N151 0.984 . S
H157 N151 0.985 . S
H158 N155 0.984 . S
H159 N155 0.985 . S
H160 N154 0.987 . S
H161 N154 0.984 . S
H162 N150 0.984 . S
H163 N150 0.985 . S
C164 C165 1.363 . S
C164 C170 1.379 . S
C164 N172 1.356 . S
C165 C164 1.363 . S
C165 C171 1.363 . S
C166 C167 1.363 . S
C166 C171 1.379 . S
C166 N173 1.356 . S
C167 C166 1.363 . S
C167 C170 1.363 . S
N168 C170 1.356 . S
N168 H180 0.984 1_455 S
N168 H181 0.985 . S
N169 C171 1.356 . S
N169 H174 0.984 . S
N169 H175 0.985 . S
C170 C164 1.379 . S
C170 C167 1.363 . S
C170 N168 1.356 . S
C171 C165 1.363 . S
C171 C166 1.379 . S
C171 N169 1.356 . S
N172 C164 1.356 . S
N172 H178 0.984 1_455 S
N172 H179 0.984 . S
N173 C166 1.356 . S
N173 H176 0.984 . S
N173 H177 0.985 . S
H174 N169 0.984 . S
H175 N169 0.985 . S
H176 N173 0.984 . S
H177 N173 0.985 . S
H178 N172 0.984 1_655 S
H179 N172 0.984 . S
H180 N168 0.984 1_655 S
H181 N168 0.985 . S
C182 C183 1.363 . S
C182 C188 1.379 . S
C182 N190 1.356 1_545 S
C183 C182 1.363 . S
C183 C189 1.363 . S
C184 C185 1.363 . S
C184 C189 1.379 . S
C184 N191 1.356 . S
C185 C184 1.363 . S
C185 C188 1.363 . S
N186 C188 1.356 1_565 S
N186 H198 0.984 . S
N186 H199 0.985 . S
N187 C189 1.356 . S
N187 H192 0.984 . S
N187 H193 0.985 . S
C188 C182 1.379 . S
C188 C185 1.363 . S
C188 N186 1.356 1_545 S
C189 C183 1.363 . S
C189 C184 1.379 . S
C189 N187 1.356 . S
N190 C182 1.356 1_565 S
N190 H196 0.984 . S
N190 H197 0.984 1_565 S
N191 C184 1.356 . S
N191 H194 0.984 . S
N191 H195 0.985 . S
H192 N187 0.984 . S
H193 N187 0.985 . S
H194 N191 0.984 . S
H195 N191 0.985 . S
H196 N190 0.984 . S
H197 N190 0.984 1_545 S
H198 N186 0.984 . S
H199 N186 0.985 . S
C200 C201 1.363 . S
C200 C206 1.379 . S
C200 N208 1.356 . S
C201 C200 1.363 . S
C201 C207 1.363 . S
C202 C203 1.363 . S
C202 C207 1.379 . S
C202 N209 1.356 . S
C203 C202 1.363 . S
C203 C206 1.363 . S
N204 C206 1.356 . S
N204 H216 0.984 1_565 S
N204 H217 0.985 1_565 S
N205 C207 1.356 . S
N205 H210 0.984 . S
N205 H211 0.985 . S
C206 C200 1.379 . S
C206 C203 1.363 . S
C206 N204 1.356 . S
C207 C201 1.363 . S
C207 C202 1.379 . S
C207 N205 1.356 . S
N208 C200 1.356 . S
N208 H214 0.984 . S
N208 H215 0.984 . S
N209 C202 1.356 . S
N209 H212 0.984 . S
N209 H213 0.985 . S
H210 N205 0.984 . S
H211 N205 0.985 . S
H212 N209 0.984 . S
H213 N209 0.985 . S
H214 N208 0.984 . S
H215 N208 0.984 . S
H216 N204 0.984 1_545 S
H217 N204 0.985 1_545 S
C77 C51 1.253 . S
C75 N12 1.442 . S
C95 C71 1.496 . S
C93 N25 1.488 . S
C113 C50 1.450 . S
C111 C16 1.487 . S
C131 C72 1.521 . S
C129 C30 1.519 . S
C149 C64 1.483 . S
C147 C7 1.522 . S
C167 C57 1.451 . S
C165 C39 1.468 . S
C185 C65 1.265 . S
C183 N2 1.479 . S
C201 N35 1.451 . S
C203 C58 1.492 . S
