# Generated by pormake.
# Topology sit, (3,6)-cn, num edge types: 1
# Building blocks:
#     Node 0, Type 0, BuildingBlock: WUSLED_clean_sbu_0, # of connection points: 3
#     Node 1, Type 0, BuildingBlock: WUSLED_clean_sbu_0, # of connection points: 3
#     Node 2, Type 0, BuildingBlock: WUSLED_clean_sbu_0, # of connection points: 3
#     Node 3, Type 0, BuildingBlock: WUSLED_clean_sbu_0, # of connection points: 3
#     Node 4, Type 1, BuildingBlock: MIDCAF_clean_sbu_0, # of connection points: 6
#     Node 5, Type 1, BuildingBlock: MIDCAF_clean_sbu_0, # of connection points: 6
#     Edge 6, Type (0, 1), None
#     Edge 7, Type (0, 1), None
#     Edge 8, Type (0, 1), None
#     Edge 9, Type (0, 1), None
#     Edge 10, Type (0, 1), None
#     Edge 11, Type (0, 1), None
#     Edge 12, Type (0, 1), None
#     Edge 13, Type (0, 1), None
#     Edge 14, Type (0, 1), None
#     Edge 15, Type (0, 1), None
#     Edge 16, Type (0, 1), None
#     Edge 17, Type (0, 1), None
# Relax obj value: 0.107
# Max RMSD: 0.192
# Mean RMSD: 0.105
data_MOF--net-sit--node1-WUSLED_clean_sbu_0--node2-MIDCAF_clean_sbu_0--edge1-none
_symmetry_space_group_name_H-M    P1
_symmetry_Int_Tables_number       1
_symmetry_cell_setting            triclinic
loop_
_symmetry_equiv_pos_as_xyz
'x, y, z'
_cell_length_a     17.956983
_cell_length_b     17.993904
_cell_length_c     28.637177
_cell_angle_alpha  91.084596
_cell_angle_beta   90.228344
_cell_angle_gamma 81.246377
loop_
_atom_site_label
_atom_site_type_symbol
_atom_site_fract_x
_atom_site_fract_y
_atom_site_fract_z
_atom_type_partial_charge
C0 C 0.83816 0.54528 -0.03415 0.0
C1 C 0.84996 0.53814 0.91738 0.0
C2 C 0.72023 0.59281 0.90367 0.0
C3 C 0.79099 0.56066 0.88657 0.0
C4 C 0.71002 0.60607 0.95183 0.0
C5 C 0.76875 0.58185 -0.01711 0.0
U6 U 0.04312 0.48886 -0.00468 0.0
O7 O 0.10681 0.48029 0.06117 0.0
O8 O 0.10302 0.37926 0.01766 0.0
C9 C 0.12058 0.40635 0.05849 0.0
C10 C 0.89588 0.50928 -0.0018 0.0
C11 C 0.09486 0.36825 0.09901 0.0
C12 C -0.00358 0.35793 0.15515 0.0
C13 C 0.01968 0.38611 0.11354 0.0
C14 C 0.12148 0.28817 0.16638 0.0
C15 C 0.04751 0.3103 0.18245 0.0
C16 C 0.14517 0.31729 0.12479 0.0
C17 C 0.18186 0.55904 0.91088 0.0
C18 C 0.31756 0.53761 0.9206 0.0
C19 C 0.26136 0.6101 0.85541 0.0
C20 C 0.18986 0.59995 0.87055 0.0
C21 C 0.32561 0.5799 0.88068 0.0
C22 C 0.24595 0.52763 0.93582 0.0
C23 C 0.10615 0.55195 0.92705 0.0
O24 O 0.93651 0.44752 -0.01833 0.0
O25 O 0.93603 0.55421 0.02027 0.0
O26 O 0.08652 0.58631 -0.03299 0.0
O27 O 0.08684 0.48444 0.92346 0.0
H28 H 0.90355 0.51139 0.90335 0.0
H29 H 0.79965 0.54994 0.84947 0.0
H30 H 0.65536 0.63035 -0.03446 0.0
H31 H 0.7589 0.58843 0.02015 0.0
H32 H 0.93934 0.37631 0.16722 0.0
H33 H -0.02016 0.42477 0.09382 0.0
H34 H 0.16211 0.25272 0.18748 0.0
H35 H 0.20332 0.30263 0.11387 0.0
H36 H 0.36656 0.51308 0.94027 0.0
H37 H 0.26645 0.6414 0.82393 0.0
H38 H 0.14076 0.6246 0.85099 0.0
H39 H 0.24048 0.49588 -0.03292 0.0
C40 C 0.77349 0.86271 -0.02476 0.0
C41 C 0.78968 0.80434 0.94178 0.0
C42 C 0.65795 0.82134 0.91798 0.0
C43 C 0.73213 0.78367 0.91339 0.0
C44 C 0.64193 0.87824 0.95237 0.0
C45 C 0.69914 0.89851 -0.01917 0.0
U46 U -0.02169 0.89157 -0.01203 0.0
O47 O 0.05381 0.89214 0.04834 0.0
O48 O 0.02337 0.99504 0.00828 0.0
C49 C 0.05692 0.96451 0.04564 0.0
C50 C 0.83376 0.89233 0.00125 0.0
C51 C 0.04192 1.00751 0.08969 0.0
C52 C -0.02433 1.02581 0.16349 0.0
C53 C -0.01757 0.9947 0.11848 0.0
C54 C 0.08358 1.0888 0.15027 0.0
C55 C 0.02743 1.07125 0.18024 0.0
C56 C 0.09101 1.05667 0.10518 0.0
C57 C 0.12399 0.80779 0.89818 0.0
C58 C 0.2585 0.7665 0.90852 0.0
C59 C 0.21216 0.82868 0.83749 0.0
C60 C 0.1384 0.8345 0.85391 0.0
C61 C 0.27253 0.79459 0.86464 0.0
C62 C 0.18472 0.7731 0.92527 0.0
C63 C 0.04594 0.81927 0.91594 0.0
O64 O 0.88602 0.84248 0.01998 0.0
O65 O 0.86118 0.94653 -0.01974 0.0
O66 O 0.01003 0.88852 0.91373 0.0
O67 O 0.0347 0.78651 0.95542 0.0
H68 H 0.84705 0.77673 0.93648 0.0
H69 H 0.74633 0.74115 0.88632 0.0
H70 H 0.58526 0.90834 0.95657 0.0
H71 H 0.68571 0.94401 0.00619 0.0
H72 H 0.93193 1.01148 0.1861 0.0
H73 H 0.94357 0.95748 0.10704 0.0
H74 H 0.12475 1.12263 0.16276 0.0
H75 H 0.13719 1.06727 0.0833 0.0
H76 H 0.30466 0.74075 0.93011 0.0
H77 H 0.22215 0.8511 0.80361 0.0
H78 H 0.09263 0.86129 0.8324 0.0
H79 H 0.17555 0.75191 0.95958 0.0
C80 C 0.33838 1.04507 0.46575 0.0
C81 C 0.35014 1.03777 0.41727 0.0
C82 C 0.22048 1.09264 0.40355 0.0
C83 C 0.29118 1.0603 0.38646 0.0
C84 C 0.21031 1.10605 0.45171 0.0
C85 C 0.26902 1.08181 0.48277 0.0
U86 U 0.54331 0.98868 0.4953 0.0
O87 O 0.60694 0.98013 0.56117 0.0
O88 O 0.60321 0.87909 0.51766 0.0
C89 C 0.62071 0.9062 0.5585 0.0
C90 C 0.39607 1.00908 0.49812 0.0
C91 C 0.59495 0.8681 0.59901 0.0
C92 C 0.49642 0.85778 0.65508 0.0
C93 C 0.51973 0.88594 0.61349 0.0
C94 C 0.62149 0.78809 0.66641 0.0
C95 C 0.54748 0.8102 0.68243 0.0
C96 C 0.64523 0.81719 0.62484 0.0
C97 C 0.6821 1.05888 0.41087 0.0
C98 C 0.8178 1.03746 0.42058 0.0
C99 C 0.76157 1.10999 0.35542 0.0
C100 C 0.69009 1.09981 0.37056 0.0
C101 C 0.82584 1.07979 0.38068 0.0
C102 C 0.7462 1.02746 0.43581 0.0
C103 C 0.60639 1.05176 0.42704 0.0
O104 O 0.43673 0.94732 0.48161 0.0
O105 O 0.43619 1.05403 0.5202 0.0
O106 O 0.58673 1.08612 0.46699 0.0
O107 O 0.5871 0.98425 0.42345 0.0
H108 H 0.40368 1.01088 0.40325 0.0
H109 H 0.2998 1.04948 0.34937 0.0
H110 H 0.15569 1.13047 0.4654 0.0
H111 H 0.2592 1.08852 0.52002 0.0
H112 H 0.43932 0.87614 0.66711 0.0
H113 H 0.47992 0.92456 0.59373 0.0
H114 H 0.66209 0.75268 0.68755 0.0
H115 H 0.70341 0.80255 0.61395 0.0
H116 H 0.86681 1.01293 0.44025 0.0
H117 H 0.76665 1.14131 0.32395 0.0
H118 H 0.64098 1.12448 0.35101 0.0
H119 H 0.74073 0.99569 0.46706 0.0
C120 C 0.27368 0.36252 0.47528 0.0
C121 C 0.28988 0.3042 0.44179 0.0
C122 C 0.15814 0.32119 0.41801 0.0
C123 C 0.23233 0.28355 0.41339 0.0
C124 C 0.14212 0.37804 0.45243 0.0
C125 C 0.19932 0.39829 0.4809 0.0
U126 U 0.47849 0.39139 0.48804 0.0
O127 O 0.52354 0.49487 0.50835 0.0
O128 O 0.55398 0.39198 0.54842 0.0
C129 C 0.55707 0.46435 0.54572 0.0
C130 C 0.33395 0.39213 0.5013 0.0
C131 C 0.54203 0.50735 0.58976 0.0
C132 C 0.47574 0.52565 0.66354 0.0
C133 C 0.48254 0.49452 0.61854 0.0
C134 C 0.5836 0.58871 0.65034 0.0
C135 C 0.52744 0.57114 0.6803 0.0
C136 C 0.59108 0.55655 0.60526 0.0
C137 C 0.62419 0.30765 0.39824 0.0
C138 C 0.7587 0.26637 0.40856 0.0
C139 C 0.71234 0.32858 0.33755 0.0
C140 C 0.63859 0.33438 0.35398 0.0
C141 C 0.77272 0.29448 0.36469 0.0
C142 C 0.68492 0.27295 0.42532 0.0
C143 C 0.54613 0.31911 0.41601 0.0
O144 O 0.3862 0.34229 0.52004 0.0
O145 O 0.36136 0.44634 0.48032 0.0
O146 O 0.51021 0.38835 0.41379 0.0
O147 O 0.53491 0.28635 0.45548 0.0
H148 H 0.34726 0.27662 0.43648 0.0
H149 H 0.24654 0.24107 0.3863 0.0
H150 H 0.08544 0.40811 0.45665 0.0
H151 H 0.18589 0.44375 0.50628 0.0
H152 H 0.43198 0.51132 0.68615 0.0
H153 H 0.44371 0.45728 0.6071 0.0
H154 H 0.62474 0.62258 0.66283 0.0
H155 H 0.63726 0.56717 0.58338 0.0
H156 H 0.80486 0.2406 0.43016 0.0
H157 H 0.72233 0.35103 0.30368 0.0
H158 H 0.59281 0.36118 0.33247 0.0
H159 H 0.67576 0.25173 0.45963 0.0
Zn160 Zn -0.02165 0.34456 0.32195 0.0
Zn161 Zn 0.03834 1.05169 0.32547 0.0
Zn162 Zn 0.01399 0.19572 0.32049 0.0
C163 C 0.02942 1.08759 0.23073 0.0
C164 C 0.90115 1.08904 0.36402 0.0
O165 O 0.09535 0.24095 0.36774 0.0
O166 O 0.05104 0.3626 0.37221 0.0
C167 C 0.02764 0.29856 0.23117 0.0
O168 O 0.03324 1.15396 0.24739 0.0
O169 O 0.02575 1.03382 0.25784 0.0
O170 O -0.04649 1.03384 0.36555 0.0
O171 O 0.91303 1.15177 0.34648 0.0
O172 O 0.00564 0.35638 0.25601 0.0
O173 O 0.0331 0.23236 0.24853 0.0
O174 O 0.8966 0.23136 0.3455 0.0
O175 O 0.87036 0.35477 0.33718 0.0
C176 C 0.85017 0.29347 0.3484 0.0
O177 O 0.11188 1.162 0.36674 0.0
O178 O 0.14047 1.03962 0.35258 0.0
C179 C 0.09863 0.30735 0.38459 0.0
C180 C 0.15532 1.0989 0.37227 0.0
Zn181 Zn 0.47819 0.84461 0.8219 0.0
Zn182 Zn 0.53819 0.55172 0.82554 0.0
Zn183 Zn 0.51383 0.69577 0.8205 0.0
C184 C 0.52938 0.58753 0.73079 0.0
C185 C 0.40093 0.58914 0.86403 0.0
O186 O 0.59516 0.74106 0.86774 0.0
O187 O 0.55086 0.86271 0.87216 0.0
C188 C 0.52755 0.79851 0.73115 0.0
O189 O 0.53314 0.65392 0.74742 0.0
O190 O 0.52572 0.53378 0.75791 0.0
O191 O 0.45328 0.53392 0.86558 0.0
O192 O 0.41284 0.65185 0.84648 0.0
O193 O 0.50552 0.85636 0.75595 0.0
O194 O 0.533 0.73233 0.74853 0.0
O195 O 0.39642 0.73144 0.84548 0.0
O196 O 0.37018 0.85485 0.83711 0.0
C197 C 0.34999 0.79355 0.84835 0.0
O198 O 0.61168 0.66211 0.86679 0.0
O199 O 0.64026 0.5397 0.85273 0.0
C200 C 0.59844 0.80747 0.88457 0.0
C201 C 0.65509 0.59901 0.87238 0.0
loop_
_geom_bond_atom_site_label_1
_geom_bond_atom_site_label_2
_geom_bond_distance
_geom_bond_site_symmetry_2
_ccdc_geom_bond_type
C0 C1 1.264 . S
C0 C5 1.479 . S
C0 C10 1.454 1_556 S
C1 C0 1.264 . S
C1 C3 1.339 . S
C1 H28 0.931 . S
C2 C3 1.395 . S
C2 C4 1.320 . S
C3 C1 1.339 . S
C3 C2 1.395 . S
C3 H29 0.929 . S
C4 C2 1.320 . S
C4 C5 1.405 . S
C4 H30 0.930 . S
C5 C0 1.479 . S
C5 C4 1.405 . S
C5 H31 0.931 1_556 S
U6 O7 2.454 . S
U6 O8 2.458 . S
U6 C9 2.984 . S
U6 C10 2.855 1_455 S
U6 C23 2.882 . S
U6 O24 2.441 1_455 S
U6 O25 2.420 1_554 S
U6 O26 2.455 . S
U6 O27 2.449 1_554 S
O7 U6 2.454 . S
O7 C9 1.353 . S
O8 U6 2.458 . S
O8 C9 1.286 . S
C9 U6 2.984 . S
C9 O7 1.353 . S
C9 O8 1.286 . S
C9 C11 1.363 . S
C10 C0 1.454 1_554 S
C10 U6 2.855 1_655 S
C10 O24 1.262 . S
C10 O25 1.199 1_654 S
C11 C9 1.363 . S
C11 C13 1.408 . S
C11 C16 1.342 . S
C12 C13 1.310 . S
C12 C15 1.461 . S
C12 H32 0.932 . S
C13 C11 1.408 . S
C13 C12 1.310 . S
C13 H33 0.930 . S
C14 C15 1.474 . S
C14 C16 1.285 . S
C14 H34 0.929 . S
C15 C12 1.461 . S
C15 C14 1.474 . S
C16 C11 1.342 . S
C16 C14 1.285 . S
C16 H35 0.930 . S
C17 C20 1.424 . S
C17 C22 1.245 . S
C17 C23 1.428 1_556 S
C18 C21 1.260 . S
C18 C22 1.477 . S
C18 H36 0.932 . S
C19 C20 1.384 . S
C19 C21 1.479 . S
C19 H37 0.929 . S
C20 C17 1.424 . S
C20 C19 1.384 . S
C20 H38 0.928 . S
C21 C18 1.260 . S
C21 C19 1.479 . S
C22 C17 1.245 . S
C22 C18 1.477 . S
C22 H39 0.932 1_556 S
C23 U6 2.882 . S
C23 C17 1.428 1_554 S
C23 O26 1.301 . S
C23 O27 1.282 1_554 S
O24 U6 2.441 1_655 S
O24 C10 1.262 . S
O25 U6 2.420 1_556 S
O25 C10 1.199 1_456 S
O26 U6 2.455 . S
O26 C23 1.301 . S
O27 U6 2.449 1_556 S
O27 C23 1.282 1_556 S
H28 C1 0.931 . S
H29 C3 0.929 . S
H30 C4 0.930 . S
H31 C5 0.931 1_554 S
H32 C12 0.932 . S
H33 C13 0.930 . S
H34 C14 0.929 . S
H35 C16 0.930 . S
H36 C18 0.932 . S
H37 C19 0.929 . S
H38 C20 0.928 . S
H39 C22 0.932 1_554 S
C40 C41 1.264 . S
C40 C45 1.479 . S
C40 C50 1.465 . S
C41 C40 1.264 . S
C41 C43 1.339 . S
C41 H68 0.931 . S
C42 C43 1.395 . S
C42 C44 1.320 . S
C43 C41 1.339 . S
C43 C42 1.395 . S
C43 H69 0.929 . S
C44 C42 1.320 . S
C44 C45 1.405 . S
C44 H70 0.930 . S
C45 C40 1.479 . S
C45 C44 1.405 . S
C45 H71 0.932 1_556 S
U46 O47 2.454 . S
U46 O48 2.458 1_655 S
U46 C49 2.984 . S
U46 C50 2.847 1_554 S
U46 C63 2.882 1_654 S
U46 O64 2.441 . S
U46 O65 2.420 1_554 S
U46 O66 2.455 1_654 S
U46 O67 2.449 1_654 S
O47 U46 2.454 . S
O47 C49 1.353 . S
O48 U46 2.458 1_455 S
O48 C49 1.286 1_455 S
C49 U46 2.984 . S
C49 O47 1.353 . S
C49 O48 1.286 1_655 S
C49 C51 1.363 . S
C50 C40 1.465 . S
C50 U46 2.847 1_556 S
C50 O64 1.249 1_556 S
C50 O65 1.202 . S
C51 C49 1.363 . S
C51 C53 1.408 . S
C51 C56 1.342 1_655 S
C52 C53 1.310 . S
C52 C55 1.461 . S
C52 H72 0.932 . S
C53 C51 1.408 . S
C53 C52 1.310 . S
C53 H73 0.930 . S
C54 C55 1.474 1_455 S
C54 C56 1.285 . S
C54 H74 0.929 . S
C55 C52 1.461 . S
C55 C54 1.474 1_655 S
C56 C51 1.342 1_455 S
C56 C54 1.285 . S
C56 H75 0.930 . S
C57 C60 1.424 . S
C57 C62 1.245 . S
C57 C63 1.428 . S
C58 C61 1.260 . S
C58 C62 1.477 . S
C58 H76 0.932 . S
C59 C60 1.384 . S
C59 C61 1.479 . S
C59 H77 0.929 . S
C60 C57 1.424 . S
C60 C59 1.384 . S
C60 H78 0.928 . S
C61 C58 1.260 . S
C61 C59 1.479 . S
C62 C57 1.245 . S
C62 C58 1.477 . S
C62 H79 0.932 . S
C63 U46 2.882 1_456 S
C63 C57 1.428 . S
C63 O66 1.301 . S
C63 O67 1.282 . S
O64 U46 2.441 . S
O64 C50 1.249 1_554 S
O65 U46 2.420 1_556 S
O65 C50 1.202 . S
O66 U46 2.455 1_456 S
O66 C63 1.301 . S
O67 U46 2.449 1_456 S
O67 C63 1.282 . S
H68 C41 0.931 . S
H69 C43 0.929 . S
H70 C44 0.930 . S
H71 C45 0.932 1_554 S
H72 C52 0.932 . S
H73 C53 0.930 . S
H74 C54 0.929 . S
H75 C56 0.930 . S
H76 C58 0.932 . S
H77 C59 0.929 . S
H78 C60 0.928 . S
H79 C62 0.932 . S
C80 C81 1.264 . S
C80 C85 1.479 . S
C80 C90 1.465 . S
C81 C80 1.264 . S
C81 C83 1.339 . S
C81 H108 0.931 . S
C82 C83 1.395 . S
C82 C84 1.320 . S
C83 C81 1.339 . S
C83 C82 1.395 . S
C83 H109 0.929 . S
C84 C82 1.320 . S
C84 C85 1.405 . S
C84 H110 0.930 . S
C85 C80 1.479 . S
C85 C84 1.405 . S
C85 H111 0.931 . S
U86 O87 2.454 . S
U86 O88 2.458 . S
U86 C89 2.984 . S
U86 C90 2.847 . S
U86 C103 2.882 . S
U86 O104 2.441 . S
U86 O105 2.420 . S
U86 O106 2.455 . S
U86 O107 2.449 . S
O87 U86 2.454 . S
O87 C89 1.353 . S
O88 U86 2.458 . S
O88 C89 1.286 . S
C89 U86 2.984 . S
C89 O87 1.353 . S
C89 O88 1.286 . S
C89 C91 1.363 . S
C90 C80 1.465 . S
C90 U86 2.847 . S
C90 O104 1.249 . S
C90 O105 1.202 . S
C91 C89 1.363 . S
C91 C93 1.408 . S
C91 C96 1.342 . S
C92 C93 1.310 . S
C92 C95 1.461 . S
C92 H112 0.932 . S
C93 C91 1.408 . S
C93 C92 1.310 . S
C93 H113 0.930 . S
C94 C95 1.474 . S
C94 C96 1.285 . S
C94 H114 0.929 . S
C95 C92 1.461 . S
C95 C94 1.474 . S
C96 C91 1.342 . S
C96 C94 1.285 . S
C96 H115 0.930 . S
C97 C100 1.424 . S
C97 C102 1.245 . S
C97 C103 1.428 . S
C98 C101 1.260 . S
C98 C102 1.477 . S
C98 H116 0.932 1_655 S
C99 C100 1.384 . S
C99 C101 1.479 . S
C99 H117 0.929 . S
C100 C97 1.424 . S
C100 C99 1.384 . S
C100 H118 0.928 . S
C101 C98 1.260 . S
C101 C99 1.479 . S
C102 C97 1.245 . S
C102 C98 1.477 . S
C102 H119 0.932 . S
C103 U86 2.882 . S
C103 C97 1.428 . S
C103 O106 1.301 . S
C103 O107 1.282 . S
O104 U86 2.441 . S
O104 C90 1.249 . S
O105 U86 2.420 . S
O105 C90 1.202 . S
O106 U86 2.455 . S
O106 C103 1.301 . S
O107 U86 2.449 . S
O107 C103 1.282 . S
H108 C81 0.931 . S
H109 C83 0.929 . S
H110 C84 0.930 . S
H111 C85 0.931 . S
H112 C92 0.932 . S
H113 C93 0.930 . S
H114 C94 0.929 . S
H115 C96 0.930 . S
H116 C98 0.932 1_455 S
H117 C99 0.929 . S
H118 C100 0.928 . S
H119 C102 0.932 . S
C120 C121 1.264 . S
C120 C125 1.479 . S
C120 C130 1.465 . S
C121 C120 1.264 . S
C121 C123 1.339 . S
C121 H148 0.931 . S
C122 C123 1.395 . S
C122 C124 1.320 . S
C123 C121 1.339 . S
C123 C122 1.395 . S
C123 H149 0.929 . S
C124 C122 1.320 . S
C124 C125 1.405 . S
C124 H150 0.930 . S
C125 C120 1.479 . S
C125 C124 1.405 . S
C125 H151 0.931 . S
U126 O127 2.454 . S
U126 O128 2.458 . S
U126 C129 2.984 . S
U126 C130 2.847 . S
U126 C143 2.882 . S
U126 O144 2.441 . S
U126 O145 2.420 . S
U126 O146 2.455 . S
U126 O147 2.449 . S
O127 U126 2.454 . S
O127 C129 1.353 . S
O128 U126 2.458 . S
O128 C129 1.286 . S
C129 U126 2.984 . S
C129 O127 1.353 . S
C129 O128 1.286 . S
C129 C131 1.363 . S
C130 C120 1.465 . S
C130 U126 2.847 . S
C130 O144 1.249 . S
C130 O145 1.202 . S
C131 C129 1.363 . S
C131 C133 1.408 . S
C131 C136 1.342 . S
C132 C133 1.310 . S
C132 C135 1.461 . S
C132 H152 0.932 . S
C133 C131 1.408 . S
C133 C132 1.310 . S
C133 H153 0.930 . S
C134 C135 1.474 . S
C134 C136 1.285 . S
C134 H154 0.929 . S
C135 C132 1.461 . S
C135 C134 1.474 . S
C136 C131 1.342 . S
C136 C134 1.285 . S
C136 H155 0.930 . S
C137 C140 1.424 . S
C137 C142 1.245 . S
C137 C143 1.428 . S
C138 C141 1.260 . S
C138 C142 1.477 . S
C138 H156 0.932 . S
C139 C140 1.384 . S
C139 C141 1.479 . S
C139 H157 0.929 . S
C140 C137 1.424 . S
C140 C139 1.384 . S
C140 H158 0.928 . S
C141 C138 1.260 . S
C141 C139 1.479 . S
C142 C137 1.245 . S
C142 C138 1.477 . S
C142 H159 0.932 . S
C143 U126 2.882 . S
C143 C137 1.428 . S
C143 O146 1.301 . S
C143 O147 1.282 . S
O144 U126 2.441 . S
O144 C130 1.249 . S
O145 U126 2.420 . S
O145 C130 1.202 . S
O146 U126 2.455 . S
O146 C143 1.301 . S
O147 U126 2.449 . S
O147 C143 1.282 . S
H148 C121 0.931 . S
H149 C123 0.929 . S
H150 C124 0.930 . S
H151 C125 0.931 . S
H152 C132 0.932 . S
H153 C133 0.930 . S
H154 C134 0.929 . S
H155 C136 0.930 . S
H156 C138 0.932 . S
H157 C139 0.929 . S
H158 C140 0.928 . S
H159 C142 0.932 . S
Zn160 O166 1.920 . S
Zn160 O172 1.898 . S
Zn160 O175 1.905 1_455 S
Zn161 O169 1.905 . S
Zn161 O170 1.898 1_455 S
Zn161 O178 1.920 . S
Zn162 O165 2.080 . S
Zn162 O168 2.114 1_545 S
Zn162 O171 2.120 1_545 S
Zn162 O173 2.120 . S
Zn162 O174 2.114 1_455 S
Zn162 O177 2.080 1_545 S
C163 O168 1.166 . S
C163 O169 1.182 . S
C164 O170 1.167 . S
C164 O171 1.299 1_655 S
O165 Zn162 2.080 . S
O165 C179 1.305 . S
O166 Zn160 1.920 . S
O166 C179 1.234 . S
C167 O172 1.167 . S
C167 O173 1.299 . S
O168 Zn162 2.114 1_565 S
O168 C163 1.166 . S
O169 Zn161 1.905 . S
O169 C163 1.182 . S
O170 Zn161 1.898 1_655 S
O170 C164 1.167 . S
O171 Zn162 2.120 1_565 S
O171 C164 1.299 1_455 S
O172 Zn160 1.898 . S
O172 C167 1.167 . S
O173 Zn162 2.120 . S
O173 C167 1.299 . S
O174 Zn162 2.114 1_655 S
O174 C176 1.166 . S
O175 Zn160 1.905 1_655 S
O175 C176 1.182 . S
C176 O174 1.166 . S
C176 O175 1.182 . S
O177 Zn162 2.080 1_565 S
O177 C180 1.305 . S
O178 Zn161 1.920 . S
O178 C180 1.234 . S
C179 O165 1.305 . S
C179 O166 1.234 . S
C180 O177 1.305 . S
C180 O178 1.234 . S
Zn181 O187 1.920 . S
Zn181 O193 1.898 . S
Zn181 O196 1.905 . S
Zn182 O190 1.905 . S
Zn182 O191 1.898 . S
Zn182 O199 1.920 . S
Zn183 O186 2.080 . S
Zn183 O189 2.114 . S
Zn183 O192 2.120 . S
Zn183 O194 2.120 . S
Zn183 O195 2.114 . S
Zn183 O198 2.080 . S
C184 O189 1.166 . S
C184 O190 1.182 . S
C185 O191 1.167 . S
C185 O192 1.299 . S
O186 Zn183 2.080 . S
O186 C200 1.305 . S
O187 Zn181 1.920 . S
O187 C200 1.234 . S
C188 O193 1.167 . S
C188 O194 1.299 . S
O189 Zn183 2.114 . S
O189 C184 1.166 . S
O190 Zn182 1.905 . S
O190 C184 1.182 . S
O191 Zn182 1.898 . S
O191 C185 1.167 . S
O192 Zn183 2.120 . S
O192 C185 1.299 . S
O193 Zn181 1.898 . S
O193 C188 1.167 . S
O194 Zn183 2.120 . S
O194 C188 1.299 . S
O195 Zn183 2.114 . S
O195 C197 1.166 . S
O196 Zn181 1.905 . S
O196 C197 1.182 . S
C197 O195 1.166 . S
C197 O196 1.182 . S
O198 Zn183 2.080 . S
O198 C201 1.305 . S
O199 Zn182 1.920 . S
O199 C201 1.234 . S
C200 O186 1.305 . S
C200 O187 1.234 . S
C201 O198 1.305 . S
C201 O199 1.234 . S
C167 C15 2.115 . S
C163 C55 2.098 1_455 S
C188 C95 2.121 . S
C135 C184 2.092 . S
C21 C185 1.257 . S
C200 C42 1.552 . S
C2 C201 1.585 . S
C197 C61 1.668 . S
C164 C101 1.262 . S
C122 C179 1.547 . S
C180 C82 1.586 . S
C176 C141 1.666 . S
