# Generated by pormake.
# Topology csq, (4,8)-cn, num edge types: 1
# Building blocks:
#     Node 0, Type 0, BuildingBlock: NAWXER_clean_sbu_0, # of connection points: 4
#     Node 1, Type 0, BuildingBlock: NAWXER_clean_sbu_0, # of connection points: 4
#     Node 2, Type 0, BuildingBlock: NAWXER_clean_sbu_0, # of connection points: 4
#     Node 3, Type 0, BuildingBlock: NAWXER_clean_sbu_0, # of connection points: 4
#     Node 4, Type 0, BuildingBlock: NAWXER_clean_sbu_0, # of connection points: 4
#     Node 5, Type 0, BuildingBlock: NAWXER_clean_sbu_0, # of connection points: 4
#     Node 6, Type 1, BuildingBlock: TAGTUT_clean_sbu_1, # of connection points: 8
#     Node 7, Type 1, BuildingBlock: TAGTUT_clean_sbu_1, # of connection points: 8
#     Node 8, Type 1, BuildingBlock: TAGTUT_clean_sbu_1, # of connection points: 8
#     Edge 9, Type (0, 1), None
#     Edge 10, Type (0, 1), None
#     Edge 11, Type (0, 1), None
#     Edge 12, Type (0, 1), None
#     Edge 13, Type (0, 1), None
#     Edge 14, Type (0, 1), None
#     Edge 15, Type (0, 1), None
#     Edge 16, Type (0, 1), None
#     Edge 17, Type (0, 1), None
#     Edge 18, Type (0, 1), None
#     Edge 19, Type (0, 1), None
#     Edge 20, Type (0, 1), None
#     Edge 21, Type (0, 1), None
#     Edge 22, Type (0, 1), None
#     Edge 23, Type (0, 1), None
#     Edge 24, Type (0, 1), None
#     Edge 25, Type (0, 1), None
#     Edge 26, Type (0, 1), None
#     Edge 27, Type (0, 1), None
#     Edge 28, Type (0, 1), None
#     Edge 29, Type (0, 1), None
#     Edge 30, Type (0, 1), None
#     Edge 31, Type (0, 1), None
#     Edge 32, Type (0, 1), None
# Relax obj value: 0.047
# Max RMSD: 0.118
# Mean RMSD: 0.064
data_MOF--net-csq--node1-NAWXER_clean_sbu_0--node2-TAGTUT_clean_sbu_1--edge1-none
_symmetry_space_group_name_H-M    P1
_symmetry_Int_Tables_number       1
_symmetry_cell_setting            triclinic
loop_
_symmetry_equiv_pos_as_xyz
'x, y, z'
_cell_length_a     23.175336
_cell_length_b     22.222377
_cell_length_c     10.374172
_cell_angle_alpha  93.929899
_cell_angle_beta   94.610898
_cell_angle_gamma 119.68953
loop_
_atom_site_label
_atom_site_type_symbol
_atom_site_fract_x
_atom_site_fract_y
_atom_site_fract_z
_atom_type_partial_charge
C0 C 0.35319 0.53257 0.0654 0.0
C1 C 0.19315 0.54429 0.36026 0.0
O2 O 0.3591 0.59099 0.10939 0.0
Zn3 Zn 0.28455 0.55379 0.22356 0.0
O4 O 0.31152 0.4772 0.10896 0.0
Zn5 Zn 0.23386 0.439 0.22716 0.0
O6 O 0.16525 0.3802 0.06964 0.0
O7 O 0.21178 0.494 0.06764 0.0
O8 O 0.18579 0.4838 0.33133 0.0
O9 O 0.23943 0.59652 0.31549 0.0
O10 O 0.32993 0.52991 0.37662 0.0
O11 O 0.27962 0.41633 0.36988 0.0
C12 C 0.17298 0.4322 0.01131 0.0
C13 C 0.32595 0.47673 0.42343 0.0
C14 C 0.70361 0.19403 -0.01006 0.0
C15 C 0.9034 0.36959 0.30482 0.0
O16 O 0.74499 0.17461 0.02843 0.0
Zn17 Zn 0.83745 0.21532 0.15185 0.0
O18 O 0.71454 0.25419 0.03496 0.0
Zn19 Zn 0.80066 0.29092 0.15106 0.0
O20 O 0.86874 0.30423 0.02258 0.0
O21 O 0.903 0.22735 0.0329 0.0
O22 O 0.85817 0.38319 0.26234 0.0
O23 O 0.89714 0.3106 0.26839 0.0
O24 O 0.81547 0.15835 0.29837 0.0
O25 O 0.77294 0.22805 0.30216 0.0
C26 C 0.90579 0.28054 -0.01244 0.0
C27 C 0.78288 0.18287 0.35369 0.0
C28 C 0.66184 0.9167 0.22979 0.0
C29 C 0.63966 0.75986 0.85682 0.0
O30 O 0.71308 0.91784 0.19009 0.0
Zn31 Zn 0.66381 0.84388 0.04524 0.0
O32 O 0.60267 0.87193 0.17805 0.0
Zn33 Zn 0.54908 0.79331 0.02733 0.0
O34 O 0.50627 0.70678 0.11728 0.0
O35 O 0.61643 0.75625 0.13716 0.0
O36 O 0.5865 0.75526 0.8923 0.0
O37 O 0.69758 0.80716 0.91224 0.0
O38 O 0.62412 0.89223 0.93928 0.0
O39 O 0.5142 0.8445 0.92265 0.0
C40 C 0.55992 0.70632 0.15595 0.0
C41 C 0.57127 0.89339 0.90074 0.0
C42 C 0.88428 0.53557 0.9282 0.0
C43 C 0.72419 0.54712 0.2231 0.0
O44 O 0.89161 0.59604 0.95713 0.0
Zn45 Zn 0.84352 0.64081 0.06136 0.0
O46 O 0.83804 0.48334 -0.02693 0.0
Zn47 Zn 0.79292 0.52604 0.06504 0.0
O48 O 0.74748 0.54987 0.91198 0.0
O49 O 0.79772 0.66344 0.91865 0.0
O50 O 0.71835 0.48873 0.17914 0.0
O51 O 0.76584 0.60252 0.17957 0.0
O52 O 0.91216 0.69972 0.21881 0.0
O53 O 0.86571 0.58594 0.22095 0.0
C54 C 0.75141 0.60302 0.86513 0.0
C55 C 0.90449 0.64776 0.27721 0.0
C56 C 0.17189 0.79934 0.30095 0.0
C57 C 0.29482 0.89679 0.93473 0.0
O58 O 0.17474 0.85256 0.25558 0.0
Zn59 Zn 0.24026 0.86449 0.13662 0.0
O60 O 0.2089 0.77559 0.26597 0.0
Zn61 Zn 0.27696 0.78878 0.13748 0.0
O62 O 0.36311 0.82558 0.25362 0.0
O63 O 0.33271 0.9052 0.26 0.0
O64 O 0.30473 0.85161 -0.01367 0.0
O65 O 0.26227 0.92137 -0.01 0.0
O66 O 0.18052 0.7692 0.0202 0.0
O67 O 0.21933 0.69648 0.02609 0.0
C68 C 0.37408 0.88578 0.29851 0.0
C69 C 0.17414 0.71016 -0.01628 0.0
C70 C 0.43772 0.31989 0.43142 0.0
C71 C 0.41566 0.16286 0.0588 0.0
O72 O 0.4909 0.32452 0.39602 0.0
Zn73 Zn 0.52833 0.28641 0.2611 0.0
O74 O 0.37982 0.27251 0.37607 0.0
Zn75 Zn 0.41361 0.23573 0.24321 0.0
O76 O 0.45333 0.18745 0.34935 0.0
O77 O 0.56327 0.23534 0.36585 0.0
O78 O 0.36438 0.16169 0.09843 0.0
O79 O 0.4748 0.20771 0.11049 0.0
O80 O 0.57108 0.37288 0.17103 0.0
O81 O 0.46091 0.32331 0.1511 0.0
C82 C 0.50624 0.18641 0.38786 0.0
C83 C 0.5174 0.37326 0.13228 0.0
C84 C 0.95783 0.32485 0.91304 0.0
C85 C 0.13965 0.42861 0.881 0.0
C86 C 0.12285 0.67014 0.87081 0.0
Mg87 Mg 1.01994 0.37561 0.67752 0.0
O88 O 1.01468 0.45585 0.73563 0.0
Mg89 Mg 0.06135 0.50195 0.91149 0.0
Mg90 Mg 0.03869 0.53992 0.64414 0.0
O91 O 0.06274 0.62404 0.55285 0.0
Mg92 Mg 0.05766 0.7044 0.611 0.0
Mg93 Mg 1.01614 0.57804 0.37701 0.0
C94 C 0.9547 0.4098 0.41759 0.0
C95 C 0.13863 0.54955 0.41626 0.0
O96 O 0.99959 0.38738 -0.03064 0.0
O97 O 0.9479 0.30872 0.78959 0.0
O98 O 0.14257 0.48459 0.85425 0.0
O99 O 0.10063 0.37258 0.80547 0.0
O100 O 0.97591 0.37394 0.47864 0.0
O101 O 0.96639 0.47037 0.46544 0.0
C102 C 0.93879 0.53033 0.87217 0.0
O103 O 0.95285 0.54459 0.75568 0.0
O104 O 0.9741 0.51514 0.94866 0.0
O105 O 0.078 0.6926 0.31921 0.0
O106 O 0.12977 0.77124 0.49895 0.0
O107 O 0.93496 0.59545 0.4343 0.0
C108 C 0.11982 0.75511 0.3755 0.0
O109 O 0.97699 0.70748 0.48292 0.0
O110 O 0.10178 0.70615 0.80995 0.0
C111 C 0.93789 0.65143 0.40751 0.0
O112 O 0.11085 0.6095 0.82268 0.0
O113 O 0.12454 0.53525 0.53271 0.0
O114 O 0.10335 0.56477 0.33979 0.0
C115 C 0.41137 0.11134 -0.03951 0.0
C116 C 0.33053 0.92522 0.82321 0.0
C117 C 0.5815 0.94694 0.81533 0.0
Mg118 Mg 0.40264 0.05374 0.69016 0.0
O119 O 0.4857 0.06334 0.75564 0.0
Mg120 Mg 0.48583 1.01255 0.90392 0.0
Mg121 Mg 0.53885 0.03995 0.64418 0.0
O122 O 0.59201 1.0165 0.5329 0.0
Mg123 Mg 0.67502 1.02593 0.59838 0.0
Mg124 Mg 0.59192 0.06722 0.38461 0.0
C125 C 0.49616 0.13284 0.47313 0.0
C126 C 0.43906 0.9386 0.37489 0.0
O127 O 0.43682 0.07384 -0.00364 0.0
O128 O 0.40223 0.12021 0.84213 0.0
O129 O 0.38412 0.92347 0.81712 0.0
O130 O 0.31885 0.96498 0.75676 0.0
O131 O 0.44023 0.10696 0.52143 0.0
O132 O 0.54226 0.11867 0.50795 0.0
C133 C 0.63864 0.14121 0.91357 0.0
O134 O 0.63346 0.12659 0.78918 0.0
O135 O 0.59048 0.10524 -0.02239 0.0
O136 O 0.64081 1.00581 0.29226 0.0
O137 O 0.67532 0.95937 0.44647 0.0
O138 O 0.69365 0.15622 0.47145 0.0
C139 C 0.66619 0.96825 0.32811 0.0
O140 O 0.75886 0.1146 0.53158 0.0
O141 O 0.63746 0.97268 0.76713 0.0
C142 C 0.7472 0.15441 0.46522 0.0
O143 O 0.53562 0.96139 0.78033 0.0
O144 O 0.44423 0.95327 0.49925 0.0
O145 O 0.48723 0.97457 0.31085 0.0
C146 C 0.56419 0.65949 0.24433 0.0
C147 C 0.68195 0.55495 0.31607 0.0
C148 C 0.4489 0.37624 0.52723 0.0
Mg149 Mg 0.64785 0.65393 0.48253 0.0
O150 O 0.55989 0.58227 0.48495 0.0
Mg151 Mg 0.51927 0.50048 0.34668 0.0
Mg152 Mg 0.5387 0.53986 0.64426 0.0
O153 O 0.51744 0.49739 0.80347 0.0
Mg154 Mg 0.42945 0.4257 0.80579 0.0
Mg155 Mg 0.55802 0.57911 0.94179 0.0
C156 C 0.62841 0.70346 0.76106 0.0
C157 C 0.68554 0.59356 0.82109 0.0
O158 O 0.53101 0.59195 0.21866 0.0
O159 O 0.61167 0.69179 0.33835 0.0
O160 O 0.61979 0.51023 0.30141 0.0
O161 O 0.70526 0.61388 0.3864 0.0
O162 O 0.6671 0.71556 0.67223 0.0
O163 O 0.57384 0.64492 0.76195 0.0
C164 C 0.39181 0.48613 0.46745 0.0
O165 O 0.4251 0.51383 0.58205 0.0
O166 O 0.42011 0.48036 0.37236 0.0
O167 O 0.54626 0.48762 0.06969 0.0
O168 O 0.46563 0.38779 0.9499 0.0
O169 O 0.45754 0.56939 -0.01299 0.0
C170 C 0.51311 0.42008 0.04394 0.0
O171 O 0.37206 0.46575 0.90208 0.0
O172 O 0.41014 0.36406 0.61597 0.0
C173 C 0.39538 0.52469 -0.02761 0.0
O174 O 0.5035 0.4348 0.52676 0.0
O175 O 0.65229 0.56591 0.70645 0.0
O176 O 0.6572 0.59926 0.91616 0.0
loop_
_geom_bond_atom_site_label_1
_geom_bond_atom_site_label_2
_geom_bond_distance
_geom_bond_site_symmetry_2
_ccdc_geom_bond_type
C0 O2 1.247 . S
C0 O4 1.258 . S
C1 O8 1.247 . S
C1 O9 1.258 . S
O2 C0 1.247 . S
O2 Zn3 2.028 . S
Zn3 O2 2.028 . S
Zn3 O7 2.035 . S
Zn3 O9 2.035 . S
Zn3 O10 2.028 . S
O4 C0 1.258 . S
O4 Zn5 2.035 . S
Zn5 O4 2.035 . S
Zn5 O6 2.028 . S
Zn5 O8 2.028 . S
Zn5 O11 2.035 . S
O6 Zn5 2.028 . S
O6 C12 1.247 . S
O7 Zn3 2.035 . S
O7 C12 1.258 . S
O8 C1 1.247 . S
O8 Zn5 2.028 . S
O9 C1 1.258 . S
O9 Zn3 2.035 . S
O10 Zn3 2.028 . S
O10 C13 1.247 . S
O11 Zn5 2.035 . S
O11 C13 1.258 . S
C12 O6 1.247 . S
C12 O7 1.258 . S
C13 O10 1.247 . S
C13 O11 1.258 . S
C14 O16 1.247 . S
C14 O18 1.258 . S
C15 O22 1.247 . S
C15 O23 1.258 . S
O16 C14 1.247 . S
O16 Zn17 2.028 . S
Zn17 O16 2.028 . S
Zn17 O21 2.035 . S
Zn17 O23 2.035 . S
Zn17 O24 2.028 . S
O18 C14 1.258 . S
O18 Zn19 2.035 . S
Zn19 O18 2.035 . S
Zn19 O20 2.028 . S
Zn19 O22 2.028 . S
Zn19 O25 2.035 . S
O20 Zn19 2.028 . S
O20 C26 1.247 . S
O21 Zn17 2.035 . S
O21 C26 1.258 . S
O22 C15 1.247 . S
O22 Zn19 2.028 . S
O23 C15 1.258 . S
O23 Zn17 2.035 . S
O24 Zn17 2.028 . S
O24 C27 1.247 . S
O25 Zn19 2.035 . S
O25 C27 1.258 . S
C26 O20 1.247 . S
C26 O21 1.258 . S
C27 O24 1.247 . S
C27 O25 1.258 . S
C28 O30 1.247 . S
C28 O32 1.258 . S
C29 O36 1.247 . S
C29 O37 1.258 . S
O30 C28 1.247 . S
O30 Zn31 2.028 . S
Zn31 O30 2.028 . S
Zn31 O35 2.035 . S
Zn31 O37 2.035 1_554 S
Zn31 O38 2.028 1_554 S
O32 C28 1.258 . S
O32 Zn33 2.035 . S
Zn33 O32 2.035 . S
Zn33 O34 2.028 . S
Zn33 O36 2.028 1_554 S
Zn33 O39 2.035 1_554 S
O34 Zn33 2.028 . S
O34 C40 1.247 . S
O35 Zn31 2.035 . S
O35 C40 1.258 . S
O36 C29 1.247 . S
O36 Zn33 2.028 1_556 S
O37 C29 1.258 . S
O37 Zn31 2.035 1_556 S
O38 Zn31 2.028 1_556 S
O38 C41 1.247 . S
O39 Zn33 2.035 1_556 S
O39 C41 1.258 . S
C40 O34 1.247 . S
C40 O35 1.258 . S
C41 O38 1.247 . S
C41 O39 1.258 . S
C42 O44 1.247 . S
C42 O46 1.258 . S
C43 O50 1.247 . S
C43 O51 1.258 . S
O44 C42 1.247 . S
O44 Zn45 2.028 1_556 S
Zn45 O44 2.028 1_554 S
Zn45 O49 2.035 1_554 S
Zn45 O51 2.035 . S
Zn45 O52 2.028 . S
O46 C42 1.258 . S
O46 Zn47 2.035 1_556 S
Zn47 O46 2.035 1_554 S
Zn47 O48 2.028 1_554 S
Zn47 O50 2.028 . S
Zn47 O53 2.035 . S
O48 Zn47 2.028 1_556 S
O48 C54 1.247 . S
O49 Zn45 2.035 1_556 S
O49 C54 1.258 . S
O50 C43 1.247 . S
O50 Zn47 2.028 . S
O51 C43 1.258 . S
O51 Zn45 2.035 . S
O52 Zn45 2.028 . S
O52 C55 1.247 . S
O53 Zn47 2.035 . S
O53 C55 1.258 . S
C54 O48 1.247 . S
C54 O49 1.258 . S
C55 O52 1.247 . S
C55 O53 1.258 . S
C56 O58 1.247 . S
C56 O60 1.258 . S
C57 O64 1.247 1_556 S
C57 O65 1.258 1_556 S
O58 C56 1.247 . S
O58 Zn59 2.028 . S
Zn59 O58 2.028 . S
Zn59 O63 2.035 . S
Zn59 O65 2.035 . S
Zn59 O66 2.028 1_554 S
O60 C56 1.258 . S
O60 Zn61 2.035 . S
Zn61 O60 2.035 . S
Zn61 O62 2.028 . S
Zn61 O64 2.028 . S
Zn61 O67 2.035 1_554 S
O62 Zn61 2.028 . S
O62 C68 1.247 . S
O63 Zn59 2.035 . S
O63 C68 1.258 . S
O64 C57 1.247 1_554 S
O64 Zn61 2.028 . S
O65 C57 1.258 1_554 S
O65 Zn59 2.035 . S
O66 Zn59 2.028 1_556 S
O66 C69 1.247 . S
O67 Zn61 2.035 1_556 S
O67 C69 1.258 . S
C68 O62 1.247 . S
C68 O63 1.258 . S
C69 O66 1.247 . S
C69 O67 1.258 . S
C70 O72 1.247 . S
C70 O74 1.258 . S
C71 O78 1.247 . S
C71 O79 1.258 . S
O72 C70 1.247 . S
O72 Zn73 2.028 . S
Zn73 O72 2.028 . S
Zn73 O77 2.035 . S
Zn73 O79 2.035 . S
Zn73 O80 2.028 . S
O74 C70 1.258 . S
O74 Zn75 2.035 . S
Zn75 O74 2.035 . S
Zn75 O76 2.028 . S
Zn75 O78 2.028 . S
Zn75 O81 2.035 . S
O76 Zn75 2.028 . S
O76 C82 1.247 . S
O77 Zn73 2.035 . S
O77 C82 1.258 . S
O78 C71 1.247 . S
O78 Zn75 2.028 . S
O79 C71 1.258 . S
O79 Zn73 2.035 . S
O80 Zn73 2.028 . S
O80 C83 1.247 . S
O81 Zn75 2.035 . S
O81 C83 1.258 . S
C82 O76 1.247 . S
C82 O77 1.258 . S
C83 O80 1.247 . S
C83 O81 1.258 . S
C84 O96 1.241 . S
C84 O97 1.280 1_554 S
C85 O98 1.277 1_556 S
C85 O99 1.245 . S
C86 O110 1.247 . S
C86 O112 1.289 . S
Mg87 O88 1.926 . S
Mg87 O97 1.984 . S
Mg87 O99 1.988 1_655 S
Mg87 O100 2.061 . S
O88 Mg87 1.926 . S
O88 Mg89 1.986 1_656 S
O88 Mg90 1.917 1_655 S
Mg89 O88 1.986 1_454 S
Mg89 O96 2.042 1_455 S
Mg89 O98 2.041 . S
Mg89 O104 2.038 1_454 S
Mg89 O112 2.238 1_554 S
Mg90 O88 1.917 1_455 S
Mg90 O91 1.917 . S
Mg90 O101 2.106 1_455 S
Mg90 O103 2.079 1_455 S
Mg90 O112 2.106 . S
Mg90 O113 2.079 . S
O91 Mg90 1.917 . S
O91 Mg92 1.926 . S
O91 Mg93 1.986 . S
Mg92 O91 1.926 . S
Mg92 O106 1.984 . S
Mg92 O109 1.988 1_455 S
Mg92 O110 2.061 . S
Mg93 O91 1.986 . S
Mg93 O101 2.238 1_455 S
Mg93 O105 2.042 . S
Mg93 O107 2.041 1_455 S
Mg93 O114 2.038 . S
C94 O100 1.247 . S
C94 O101 1.289 . S
C95 O113 1.245 . S
C95 O114 1.274 . S
O96 C84 1.241 . S
O96 Mg89 2.042 1_655 S
O97 C84 1.280 1_556 S
O97 Mg87 1.984 . S
O98 C85 1.277 1_554 S
O98 Mg89 2.041 . S
O99 C85 1.245 . S
O99 Mg87 1.988 1_455 S
O100 Mg87 2.061 . S
O100 C94 1.247 . S
O101 Mg90 2.106 1_655 S
O101 Mg93 2.238 1_655 S
O101 C94 1.289 . S
C102 O103 1.245 . S
C102 O104 1.274 . S
O103 Mg90 2.079 1_655 S
O103 C102 1.245 . S
O104 Mg89 2.038 1_656 S
O104 C102 1.274 . S
O105 Mg93 2.042 . S
O105 C108 1.241 . S
O106 Mg92 1.984 . S
O106 C108 1.280 . S
O107 Mg93 2.041 1_655 S
O107 C111 1.277 . S
C108 O105 1.241 . S
C108 O106 1.280 . S
O109 Mg92 1.988 1_655 S
O109 C111 1.245 . S
O110 C86 1.247 . S
O110 Mg92 2.061 . S
C111 O107 1.277 . S
C111 O109 1.245 . S
O112 C86 1.289 . S
O112 Mg89 2.238 1_556 S
O112 Mg90 2.106 . S
O113 Mg90 2.079 . S
O113 C95 1.245 . S
O114 Mg93 2.038 . S
O114 C95 1.274 . S
C115 O127 1.241 . S
C115 O128 1.280 1_554 S
C116 O129 1.279 . S
C116 O130 1.245 . S
C117 O141 1.247 . S
C117 O143 1.289 . S
Mg118 O119 1.926 . S
Mg118 O128 1.984 . S
Mg118 O130 1.988 1_545 S
Mg118 O131 2.061 . S
O119 Mg118 1.926 . S
O119 Mg120 1.986 1_556 S
O119 Mg121 1.917 . S
Mg120 O119 1.986 1_554 S
Mg120 O127 2.042 . S
Mg120 O129 2.042 1_544 S
Mg120 O135 2.038 . S
Mg120 O143 2.238 1_544 S
Mg121 O119 1.917 . S
Mg121 O122 1.917 1_545 S
Mg121 O132 2.106 . S
Mg121 O134 2.079 . S
Mg121 O143 2.106 1_545 S
Mg121 O144 2.079 1_545 S
O122 Mg121 1.917 1_565 S
O122 Mg123 1.926 . S
O122 Mg124 1.986 1_565 S
Mg123 O122 1.926 . S
Mg123 O137 1.984 . S
Mg123 O140 1.988 1_565 S
Mg123 O141 2.061 . S
Mg124 O122 1.986 1_545 S
Mg124 O132 2.238 . S
Mg124 O136 2.042 1_545 S
Mg124 O138 2.041 . S
Mg124 O145 2.038 1_545 S
C125 O131 1.247 . S
C125 O132 1.289 . S
C126 O144 1.245 . S
C126 O145 1.274 . S
O127 C115 1.241 . S
O127 Mg120 2.042 . S
O128 C115 1.280 1_556 S
O128 Mg118 1.984 . S
O129 C116 1.279 . S
O129 Mg120 2.042 1_566 S
O130 C116 1.245 . S
O130 Mg118 1.988 1_565 S
O131 Mg118 2.061 . S
O131 C125 1.247 . S
O132 Mg121 2.106 . S
O132 Mg124 2.238 . S
O132 C125 1.289 . S
C133 O134 1.245 . S
C133 O135 1.274 1_556 S
O134 Mg121 2.079 . S
O134 C133 1.245 . S
O135 Mg120 2.038 . S
O135 C133 1.274 1_554 S
O136 Mg124 2.042 1_565 S
O136 C139 1.241 . S
O137 Mg123 1.984 . S
O137 C139 1.280 . S
O138 Mg124 2.041 . S
O138 C142 1.277 . S
C139 O136 1.241 . S
C139 O137 1.280 . S
O140 Mg123 1.988 1_545 S
O140 C142 1.245 . S
O141 C117 1.247 . S
O141 Mg123 2.061 . S
C142 O138 1.277 . S
C142 O140 1.245 . S
O143 C117 1.289 . S
O143 Mg120 2.238 1_566 S
O143 Mg121 2.106 1_565 S
O144 Mg121 2.079 1_565 S
O144 C126 1.245 . S
O145 Mg124 2.038 1_565 S
O145 C126 1.274 . S
C146 O158 1.241 . S
C146 O159 1.280 . S
C147 O160 1.277 . S
C147 O161 1.245 . S
C148 O172 1.247 . S
C148 O174 1.289 . S
Mg149 O150 1.926 . S
Mg149 O159 1.984 . S
Mg149 O161 1.988 . S
Mg149 O162 2.061 . S
O150 Mg149 1.926 . S
O150 Mg151 1.986 . S
O150 Mg152 1.917 . S
Mg151 O150 1.986 . S
Mg151 O158 2.042 . S
Mg151 O160 2.041 . S
Mg151 O166 2.038 . S
Mg151 O174 2.238 . S
Mg152 O150 1.917 . S
Mg152 O153 1.917 . S
Mg152 O163 2.106 . S
Mg152 O165 2.079 . S
Mg152 O174 2.106 . S
Mg152 O175 2.079 . S
O153 Mg152 1.917 . S
O153 Mg154 1.926 . S
O153 Mg155 1.986 1_556 S
Mg154 O153 1.926 . S
Mg154 O168 1.984 . S
Mg154 O171 1.988 . S
Mg154 O172 2.061 . S
Mg155 O153 1.986 1_554 S
Mg155 O163 2.238 1_554 S
Mg155 O167 2.042 . S
Mg155 O169 2.041 . S
Mg155 O176 2.038 1_554 S
C156 O162 1.247 . S
C156 O163 1.289 . S
C157 O175 1.245 . S
C157 O176 1.274 . S
O158 C146 1.241 . S
O158 Mg151 2.042 . S
O159 C146 1.280 . S
O159 Mg149 1.984 . S
O160 C147 1.277 . S
O160 Mg151 2.041 . S
O161 C147 1.245 . S
O161 Mg149 1.988 . S
O162 Mg149 2.061 . S
O162 C156 1.247 . S
O163 Mg152 2.106 . S
O163 Mg155 2.238 1_556 S
O163 C156 1.289 . S
C164 O165 1.245 . S
C164 O166 1.274 . S
O165 Mg152 2.079 . S
O165 C164 1.245 . S
O166 Mg151 2.038 . S
O166 C164 1.274 . S
O167 Mg155 2.042 . S
O167 C170 1.241 . S
O168 Mg154 1.984 . S
O168 C170 1.280 1_556 S
O169 Mg155 2.041 . S
O169 C173 1.277 1_554 S
C170 O167 1.241 . S
C170 O168 1.280 1_554 S
O171 Mg154 1.988 . S
O171 C173 1.245 . S
O172 C148 1.247 . S
O172 Mg154 2.061 . S
C173 O169 1.277 1_556 S
C173 O171 1.245 . S
O174 C148 1.289 . S
O174 Mg151 2.238 . S
O174 Mg152 2.106 . S
O175 Mg152 2.079 . S
O175 C157 1.245 . S
O176 Mg155 2.038 1_556 S
O176 C157 1.274 . S
C1 C95 2.117 . S
C27 C142 1.465 . S
C146 C40 1.615 . S
C111 C55 1.278 . S
C68 C126 1.997 . S
C148 C70 1.181 . S
C117 C41 1.755 . S
C54 C157 1.499 . S
C86 C69 1.560 . S
C71 C115 1.174 . S
C0 C173 1.799 1_554 S
C84 C26 1.420 . S
C102 C42 2.117 . S
C116 C57 1.466 . S
C170 C83 1.616 . S
C85 C12 1.278 1_556 S
C133 C14 2.003 1_556 S
C29 C156 1.181 . S
C125 C82 1.754 . S
C164 C13 1.499 . S
C94 C15 1.556 . S
C139 C28 1.175 . S
C43 C147 1.799 . S
C56 C108 1.422 . S
