# Generated by pormake.
# Topology bcu-b, (8,8)-cn, num edge types: 1
# Building blocks:
#     Node 0, Type 0, BuildingBlock: VETTIZ_charged_sbu_0, # of connection points: 8
#     Node 1, Type 1, BuildingBlock: VETTIZ_charged_sbu_0, # of connection points: 8
#     Edge 2, Type (0, 1), BuildingBlock: FUNLAD_clean_linker_0, # of connection points: 2
#     Edge 3, Type (0, 1), BuildingBlock: FUNLAD_clean_linker_0, # of connection points: 2
#     Edge 4, Type (0, 1), BuildingBlock: FUNLAD_clean_linker_0, # of connection points: 2
#     Edge 5, Type (0, 1), BuildingBlock: FUNLAD_clean_linker_0, # of connection points: 2
#     Edge 6, Type (0, 1), BuildingBlock: FUNLAD_clean_linker_0, # of connection points: 2
#     Edge 7, Type (0, 1), BuildingBlock: FUNLAD_clean_linker_0, # of connection points: 2
#     Edge 8, Type (0, 1), BuildingBlock: FUNLAD_clean_linker_0, # of connection points: 2
#     Edge 9, Type (0, 1), BuildingBlock: FUNLAD_clean_linker_0, # of connection points: 2
# Relax obj value: 0.000
# Max RMSD: 0.009
# Mean RMSD: 0.009
data_MOF--net-bcu-b--node1-VETTIZ_charged_sbu_0--node2-VETTIZ_charged_sbu_0--edge1-FUNLAD_clean_linker_0
_symmetry_space_group_name_H-M    P1
_symmetry_Int_Tables_number       1
_symmetry_cell_setting            triclinic
loop_
_symmetry_equiv_pos_as_xyz
'x, y, z'
_cell_length_a     23.14185
_cell_length_b     22.503707
_cell_length_c     21.726532
_cell_angle_alpha  91.682269
_cell_angle_beta   89.363112
_cell_angle_gamma 89.159755
loop_
_atom_site_label
_atom_site_type_symbol
_atom_site_fract_x
_atom_site_fract_y
_atom_site_fract_z
_atom_type_partial_charge
Fe0 Fe 0.9851 0.95027 0.02888 0.0
O1 O 0.02893 1.01256 0.07548 0.0
Fe2 Fe 0.95724 0.01776 0.88972 0.0
Fe3 Fe 0.02872 0.02042 0.16569 0.0
O4 O 0.95678 0.01871 0.98035 0.0
O5 O 0.95858 0.02439 0.97965 0.0
O6 O 0.03048 0.01837 0.07495 0.0
Fe7 Fe 0.00238 0.08666 1.02601 0.0
C8 C 0.91626 0.95028 0.14532 0.0
O9 O 0.02271 0.88676 0.08624 0.0
O10 O 0.07602 0.94232 0.15626 0.0
O11 O 0.07251 0.07783 0.96716 0.0
O12 O 0.0264 0.073 0.87783 0.0
O13 O 0.01259 0.94426 0.87985 0.0
O14 O 0.05511 0.93769 0.9709 0.0
O15 O 0.09375 0.08004 0.1522 0.0
O16 O 0.05378 0.1432 0.08184 0.0
C17 C 0.05405 0.92653 0.91327 0.0
O18 O 0.96521 0.15041 0.96906 0.0
O19 O 0.9091 0.09564 0.90113 0.0
O20 O 0.91471 0.95869 0.08767 0.0
O21 O 0.9595 0.96533 0.17756 0.0
C22 C 0.06106 0.89242 0.1296 0.0
C23 C 0.09226 0.12948 0.12286 0.0
C24 C 0.93242 0.11087 0.14048 0.0
O25 O 0.97383 0.09406 0.17428 0.0
O26 O 0.93192 0.0992 0.08305 0.0
C27 C 0.07036 0.0868 0.90963 0.0
O28 O 0.89245 0.9581 0.90384 0.0
O29 O 0.93318 0.89408 0.9732 0.0
C30 C 0.92441 0.14504 0.9285 0.0
C31 C 0.89394 0.90882 0.93339 0.0
Fe32 Fe 0.48341 0.65065 0.49562 0.0
O33 O 0.48658 0.56356 0.49103 0.0
Fe34 Fe 0.55997 0.52113 0.52611 0.0
Fe35 Fe 0.4259 0.51223 0.52728 0.0
O36 O 0.49262 0.56344 0.48972 0.0
O37 O 0.49932 0.46962 0.56171 0.0
O38 O 0.49345 0.46976 0.56306 0.0
Fe39 Fe 0.50349 0.3828 0.55817 0.0
C40 C 0.40588 0.62166 0.60684 0.0
O41 O 0.41641 0.63615 0.43492 0.0
O42 O 0.36362 0.5634 0.48216 0.0
O43 O 0.56722 0.37856 0.49124 0.0
O44 O 0.56918 0.46733 0.44836 0.0
O45 O 0.61474 0.58203 0.48181 0.0
O46 O 0.551 0.64495 0.43356 0.0
O47 O 0.42951 0.45881 0.44915 0.0
O48 O 0.4428 0.37 0.48988 0.0
C49 C 0.60198 0.62157 0.44092 0.0
O50 O 0.56899 0.39825 0.61971 0.0
O51 O 0.62244 0.47043 0.57253 0.0
O52 O 0.42057 0.65521 0.5634 0.0
O53 O 0.41731 0.56611 0.60541 0.0
C54 C 0.37039 0.6042 0.44132 0.0
C55 C 0.42626 0.40251 0.44613 0.0
C56 C 0.38421 0.41205 0.6124 0.0
O57 O 0.37135 0.45179 0.57185 0.0
O58 O 0.43507 0.38825 0.61934 0.0
C59 C 0.58097 0.41191 0.44726 0.0
O60 O 0.55432 0.5739 0.60392 0.0
O61 O 0.54615 0.66271 0.56293 0.0
C62 C 0.61512 0.43 0.61374 0.0
C63 C 0.56248 0.62943 0.60622 0.0
C64 C 0.18882 0.15247 0.16584 0.0
C65 C 0.13689 0.17314 0.14062 0.0
C66 C 0.22807 0.19187 0.19196 0.0
C67 C 0.21686 0.25354 0.19323 0.0
C68 C 0.16605 0.27453 0.16552 0.0
C69 C 0.12657 0.23475 0.13897 0.0
C70 C 0.25372 0.2957 0.22913 0.0
C71 C 0.30844 0.28246 0.2456 0.0
C72 C 0.34074 0.31631 0.29356 0.0
C73 C 0.38137 0.28528 0.32843 0.0
C74 C 0.40974 0.31351 0.37729 0.0
C75 C 0.39903 0.37391 0.3917 0.0
H76 H 0.30125 0.40302 0.27986 0.0
C77 C 0.36033 0.40588 0.35508 0.0
C78 C 0.33116 0.37729 0.30667 0.0
H79 H 0.35135 0.45261 0.36488 0.0
H80 H 0.19833 0.10526 0.16758 0.0
H81 H 0.2654 0.17294 0.21401 0.0
H82 H 0.15596 0.32171 0.16617 0.0
H83 H 0.08679 0.25201 0.12014 0.0
H84 H 0.23331 0.33677 0.24625 0.0
H85 H 0.32913 0.24191 0.22767 0.0
H86 H 0.38993 0.23839 0.31908 0.0
H87 H 0.43977 0.28783 0.40412 0.0
C88 C 0.89166 0.17917 0.22386 0.0
C89 C 0.88432 0.14702 0.16814 0.0
C90 C 0.84635 0.21394 0.24938 0.0
C91 C 0.79251 0.21661 0.22005 0.0
C92 C 0.78495 0.18389 0.16486 0.0
C93 C 0.83059 0.1501 0.13867 0.0
C94 C 0.74258 0.24967 0.24846 0.0
C95 C 0.74835 0.30096 0.28118 0.0
C96 C 0.69987 0.33039 0.31628 0.0
C97 C 0.70114 0.392 0.32865 0.0
C98 C 0.65998 0.41961 0.36812 0.0
C99 C 0.61767 0.38569 0.39709 0.0
H100 H 0.65386 0.24939 0.33551 0.0
C101 C 0.61513 0.32446 0.38295 0.0
C102 C 0.65559 0.2971 0.34284 0.0
H103 H 0.58295 0.29724 0.40464 0.0
H104 H 0.93254 0.17777 0.24762 0.0
H105 H 0.8531 0.23744 0.29285 0.0
H106 H 0.74367 0.18467 0.1418 0.0
H107 H 0.82348 0.12561 0.0958 0.0
H108 H 0.69986 0.23145 0.24144 0.0
H109 H 0.79027 0.32207 0.28287 0.0
H110 H 0.73502 0.41856 0.30908 0.0
H111 H 0.66329 0.4668 0.37857 0.0
C112 C 0.87584 0.90006 0.2374 0.0
C113 C 0.87096 0.91425 0.17493 0.0
C114 C 0.83825 0.86001 0.26419 0.0
C115 C 0.79459 0.83304 0.22925 0.0
C116 C 0.78784 0.84921 0.16768 0.0
C117 C 0.82586 0.88902 0.14057 0.0
C118 C 0.75416 0.78982 0.25645 0.0
C119 C 0.76881 0.75369 0.3027 0.0
C120 C 0.72791 0.71302 0.33374 0.0
C121 C 0.74325 0.68927 0.39071 0.0
C122 C 0.70385 0.65585 0.42439 0.0
C123 C 0.64822 0.64579 0.40171 0.0
H124 H 0.66037 0.71353 0.26461 0.0
C125 C 0.63426 0.66609 0.34304 0.0
C126 C 0.6736 0.69884 0.30925 0.0
H127 H 0.59197 0.65805 0.32383 0.0
H128 H 0.90966 0.91888 0.26563 0.0
H129 H 0.84343 0.85065 0.31241 0.0
H130 H 0.7539 0.82985 0.13997 0.0
H131 H 0.82074 0.89883 0.0924 0.0
H132 H 0.7113 0.78833 0.23701 0.0
H133 H 0.81248 0.75525 0.32042 0.0
H134 H 0.78505 0.69858 0.41046 0.0
H135 H 0.71578 0.64085 0.46951 0.0
C136 C 0.0954 0.83619 0.21864 0.0
C137 C 0.08692 0.8383 0.15489 0.0
C138 C 0.12402 0.78808 0.24392 0.0
C139 C 0.14536 0.7409 0.20592 0.0
C140 C 0.13566 0.74222 0.14217 0.0
C141 C 0.1058 0.79023 0.11684 0.0
C142 C 0.18442 0.69503 0.23126 0.0
C143 C 0.18126 0.67903 0.2905 0.0
C144 C 0.23002 0.65082 0.32318 0.0
C145 C 0.21909 0.622 0.37853 0.0
C146 C 0.2647 0.60433 0.41598 0.0
C147 C 0.32207 0.61643 0.39929 0.0
H148 H 0.29804 0.68344 0.26368 0.0
C149 C 0.33305 0.64318 0.34279 0.0
C150 C 0.28766 0.66008 0.3051 0.0
H151 H 0.37683 0.65256 0.32827 0.0
H152 H 0.08084 0.87255 0.24905 0.0
H153 H 0.13202 0.78974 0.29293 0.0
H154 H 0.1524 0.70681 0.11184 0.0
H155 H 0.09984 0.79107 0.06748 0.0
H156 H 0.2193 0.67786 0.20165 0.0
H157 H 0.14321 0.69156 0.31795 0.0
H158 H 0.17507 0.61496 0.39387 0.0
H159 H 0.25487 0.58373 0.45923 0.0
C160 C 0.09353 0.85769 0.82929 0.0
C161 C 0.10167 0.88995 0.88486 0.0
C162 C 0.13835 0.82242 0.80324 0.0
C163 C 0.19256 0.81937 0.83182 0.0
C164 C 0.20087 0.85218 0.88685 0.0
C165 C 0.15574 0.88643 0.91356 0.0
C166 C 0.24222 0.78591 0.80294 0.0
C167 C 0.23631 0.73482 0.76976 0.0
C168 C 0.28507 0.70468 0.73541 0.0
C169 C 0.28324 0.64309 0.72275 0.0
C170 C 0.325 0.61488 0.68431 0.0
C171 C 0.36858 0.64814 0.6566 0.0
H172 H 0.3328 0.78492 0.71759 0.0
C173 C 0.37156 0.70933 0.67099 0.0
C174 C 0.3305 0.73726 0.71009 0.0
H175 H 0.40458 0.73615 0.65021 0.0
H176 H 0.05237 0.85936 0.80609 0.0
H177 H 0.13094 0.79885 0.75995 0.0
H178 H 0.24239 0.85117 0.90939 0.0
H179 H 0.16354 0.91094 0.95625 0.0
H180 H 0.28511 0.80355 0.81042 0.0
H181 H 0.19419 0.71419 0.7675 0.0
H182 H 0.24853 0.61699 0.74135 0.0
H183 H 0.32121 0.56779 0.67357 0.0
C184 C 0.11062 0.13688 0.81757 0.0
C185 C 0.11577 0.12244 0.87992 0.0
C186 C 0.14834 0.17671 0.79077 0.0
C187 C 0.19235 0.20315 0.82561 0.0
C188 C 0.19942 0.18666 0.887 0.0
C189 C 0.16126 0.14706 0.91413 0.0
C190 C 0.23274 0.24617 0.79835 0.0
C191 C 0.21745 0.28316 0.75315 0.0
C192 C 0.25832 0.32325 0.72153 0.0
C193 C 0.2427 0.3467 0.66454 0.0
C194 C 0.2822 0.37924 0.63016 0.0
C195 C 0.33816 0.38864 0.6522 0.0
H196 H 0.32628 0.32258 0.79017 0.0
C197 C 0.35241 0.3688 0.71094 0.0
C198 C 0.31294 0.33697 0.74544 0.0
H199 H 0.39495 0.3765 0.72966 0.0
H200 H 0.07651 0.11846 0.78948 0.0
H201 H 0.143 0.18638 0.74265 0.0
H202 H 0.23367 0.20563 0.91455 0.0
H203 H 0.16657 0.137 0.96221 0.0
H204 H 0.27609 0.24665 0.81664 0.0
H205 H 0.17336 0.28248 0.73652 0.0
H206 H 0.20061 0.33773 0.6453 0.0
H207 H 0.27007 0.39404 0.58504 0.0
C208 C 0.92051 0.24008 0.87278 0.0
C209 C 0.89354 0.19901 0.91058 0.0
C210 C 0.88832 0.28675 0.84817 0.0
C211 C 0.82891 0.2931 0.86187 0.0
C212 C 0.80318 0.25383 0.90273 0.0
C213 C 0.83501 0.20663 0.92616 0.0
C214 C 0.7911 0.33711 0.83176 0.0
C215 C 0.79814 0.35235 0.77257 0.0
C216 C 0.7511 0.38018 0.73647 0.0
C217 C 0.76452 0.40885 0.68152 0.0
C218 C 0.7205 0.4279 0.64242 0.0
C219 C 0.66232 0.41748 0.65718 0.0
H220 H 0.67982 0.34876 0.79262 0.0
C221 C 0.64902 0.39078 0.71313 0.0
C222 C 0.69261 0.37221 0.75207 0.0
H223 H 0.60462 0.38248 0.72625 0.0
H224 H 0.96577 0.23456 0.86024 0.0
H225 H 0.90968 0.31701 0.81785 0.0
H226 H 0.75756 0.25789 0.91417 0.0
H227 H 0.81359 0.17519 0.95524 0.0
H228 H 0.75219 0.35104 0.85688 0.0
H229 H 0.83742 0.33911 0.74767 0.0
H230 H 0.80918 0.41501 0.66798 0.0
H231 H 0.73211 0.4483 0.59956 0.0
C232 C 0.85846 0.80988 0.89538 0.0
C233 C 0.84689 0.86764 0.91864 0.0
C234 C 0.81466 0.77721 0.86642 0.0
C235 C 0.75847 0.80189 0.86105 0.0
C236 C 0.74656 0.85788 0.88884 0.0
C237 C 0.79023 0.89047 0.91694 0.0
C238 C 0.71269 0.77487 0.82184 0.0
C239 C 0.71588 0.72036 0.79466 0.0
C240 C 0.67251 0.69881 0.74942 0.0
C241 C 0.66352 0.63755 0.74236 0.0
C242 C 0.62617 0.61542 0.69741 0.0
C243 C 0.59755 0.65406 0.65751 0.0
H244 H 0.6502 0.78513 0.71308 0.0
C245 C 0.60608 0.71552 0.66488 0.0
C246 C 0.64312 0.73771 0.71033 0.0
H247 H 0.58512 0.74646 0.63472 0.0
H248 H 0.90211 0.7918 0.89547 0.0
H249 H 0.82623 0.73445 0.84559 0.0
H250 H 0.7039 0.87805 0.88596 0.0
H251 H 0.78036 0.93508 0.93456 0.0
H252 H 0.67476 0.80243 0.81359 0.0
H253 H 0.75077 0.68994 0.80568 0.0
H254 H 0.68595 0.60656 0.77134 0.0
H255 H 0.62113 0.56771 0.69292 0.0
loop_
_geom_bond_atom_site_label_1
_geom_bond_atom_site_label_2
_geom_bond_distance
_geom_bond_site_symmetry_2
_ccdc_geom_bond_type
Fe0 O1 1.886 . S
Fe0 O4 1.715 1_554 S
Fe0 O9 2.077 . S
Fe0 O14 1.935 1_554 S
Fe0 O20 2.077 1_455 S
Fe0 O29 1.935 1_454 S
O1 Fe0 1.886 . S
O1 Fe3 1.715 1_565 S
Fe2 O4 1.886 . S
Fe2 O5 1.715 1_565 S
Fe2 O12 1.935 1_565 S
Fe2 O13 2.077 . S
Fe2 O19 1.935 1_465 S
Fe2 O28 2.077 1_455 S
Fe3 O1 1.715 1_545 S
Fe3 O6 1.886 . S
Fe3 O10 1.935 1_545 S
Fe3 O15 2.077 . S
Fe3 O21 1.935 1_445 S
Fe3 O25 2.077 1_455 S
O4 Fe0 1.715 1_556 S
O4 Fe2 1.886 . S
O5 Fe2 1.715 1_545 S
O5 Fe7 1.886 . S
O6 Fe3 1.886 . S
O6 Fe7 1.715 1_554 S
Fe7 O5 1.886 . S
Fe7 O6 1.715 1_556 S
Fe7 O11 2.077 . S
Fe7 O16 1.935 1_556 S
Fe7 O18 2.077 1_455 S
Fe7 O26 1.935 1_456 S
C8 O20 1.381 . S
C8 O21 1.421 . S
O9 Fe0 2.077 . S
O9 C22 1.381 . S
O10 Fe3 1.935 1_565 S
O10 C22 1.421 . S
O11 Fe7 2.077 . S
O11 C27 1.381 . S
O12 Fe2 1.935 1_545 S
O12 C27 1.421 . S
O13 Fe2 2.077 . S
O13 C17 1.381 . S
O14 Fe0 1.935 1_556 S
O14 C17 1.421 . S
O15 Fe3 2.077 . S
O15 C23 1.381 . S
O16 Fe7 1.935 1_554 S
O16 C23 1.421 . S
C17 O13 1.381 . S
C17 O14 1.421 . S
O18 Fe7 2.077 1_655 S
O18 C30 1.381 . S
O19 Fe2 1.935 1_645 S
O19 C30 1.421 . S
O20 Fe0 2.077 1_655 S
O20 C8 1.381 . S
O21 Fe3 1.935 1_665 S
O21 C8 1.421 . S
C22 O9 1.381 . S
C22 O10 1.421 . S
C23 O15 1.381 . S
C23 O16 1.421 . S
C24 O25 1.381 . S
C24 O26 1.421 . S
O25 Fe3 2.077 1_655 S
O25 C24 1.381 . S
O26 Fe7 1.935 1_654 S
O26 C24 1.421 . S
C27 O11 1.381 . S
C27 O12 1.421 . S
O28 Fe2 2.077 1_655 S
O28 C31 1.381 . S
O29 Fe0 1.935 1_656 S
O29 C31 1.421 . S
C30 O18 1.381 . S
C30 O19 1.421 . S
C31 O28 1.381 . S
C31 O29 1.421 . S
Fe32 O33 1.886 . S
Fe32 O36 1.715 . S
Fe32 O41 2.077 . S
Fe32 O46 1.935 . S
Fe32 O52 2.077 . S
Fe32 O61 1.935 . S
O33 Fe32 1.886 . S
O33 Fe35 1.715 . S
Fe34 O36 1.886 . S
Fe34 O37 1.715 . S
Fe34 O44 1.935 . S
Fe34 O45 2.077 . S
Fe34 O51 1.935 . S
Fe34 O60 2.077 . S
Fe35 O33 1.715 . S
Fe35 O38 1.886 . S
Fe35 O42 1.935 . S
Fe35 O47 2.077 . S
Fe35 O53 1.935 . S
Fe35 O57 2.077 . S
O36 Fe32 1.715 . S
O36 Fe34 1.886 . S
O37 Fe34 1.715 . S
O37 Fe39 1.886 . S
O38 Fe35 1.886 . S
O38 Fe39 1.715 . S
Fe39 O37 1.886 . S
Fe39 O38 1.715 . S
Fe39 O43 2.077 . S
Fe39 O48 1.935 . S
Fe39 O50 2.077 . S
Fe39 O58 1.935 . S
C40 O52 1.381 . S
C40 O53 1.421 . S
O41 Fe32 2.077 . S
O41 C54 1.381 . S
O42 Fe35 1.935 . S
O42 C54 1.421 . S
O43 Fe39 2.077 . S
O43 C59 1.381 . S
O44 Fe34 1.935 . S
O44 C59 1.421 . S
O45 Fe34 2.077 . S
O45 C49 1.381 . S
O46 Fe32 1.935 . S
O46 C49 1.421 . S
O47 Fe35 2.077 . S
O47 C55 1.381 . S
O48 Fe39 1.935 . S
O48 C55 1.421 . S
C49 O45 1.381 . S
C49 O46 1.421 . S
O50 Fe39 2.077 . S
O50 C62 1.381 . S
O51 Fe34 1.935 . S
O51 C62 1.421 . S
O52 Fe32 2.077 . S
O52 C40 1.381 . S
O53 Fe35 1.935 . S
O53 C40 1.421 . S
C54 O41 1.381 . S
C54 O42 1.421 . S
C55 O47 1.381 . S
C55 O48 1.421 . S
C56 O57 1.381 . S
C56 O58 1.421 . S
O57 Fe35 2.077 . S
O57 C56 1.381 . S
O58 Fe39 1.935 . S
O58 C56 1.421 . S
C59 O43 1.381 . S
C59 O44 1.421 . S
O60 Fe34 2.077 . S
O60 C63 1.381 . S
O61 Fe32 1.935 . S
O61 C63 1.421 . S
C62 O50 1.381 . S
C62 O51 1.421 . S
C63 O60 1.381 . S
C63 O61 1.421 . S
C64 C65 1.386 . S
C64 C66 1.383 . S
C64 H80 0.951 . S
C65 C64 1.386 . S
C65 C69 1.383 . S
C66 C64 1.383 . S
C66 C67 1.402 . S
C66 H81 0.951 . S
C67 C66 1.402 . S
C67 C68 1.375 . S
C67 C70 1.481 . S
C68 C67 1.375 . S
C68 C69 1.367 . S
C68 H82 0.951 . S
C69 C65 1.383 . S
C69 C68 1.367 . S
C69 H83 0.950 . S
C70 C67 1.481 . S
C70 C71 1.297 . S
C70 H84 0.950 . S
C71 C70 1.297 . S
C71 C72 1.479 . S
C71 H85 0.950 . S
C72 C71 1.479 . S
C72 C73 1.375 . S
C72 C78 1.404 . S
C73 C72 1.375 . S
C73 C74 1.369 . S
C73 H86 0.950 . S
C74 C73 1.369 . S
C74 C75 1.392 . S
C74 H87 0.951 . S
C75 C74 1.392 . S
C75 C77 1.384 . S
H76 C78 0.949 . S
C77 C75 1.384 . S
C77 C78 1.385 . S
C77 H79 0.950 . S
C78 C72 1.404 . S
C78 H76 0.949 . S
C78 C77 1.385 . S
H79 C77 0.950 . S
H80 C64 0.951 . S
H81 C66 0.951 . S
H82 C68 0.951 . S
H83 C69 0.950 . S
H84 C70 0.950 . S
H85 C71 0.950 . S
H86 C73 0.950 . S
H87 C74 0.951 . S
C88 C89 1.386 . S
C88 C90 1.383 . S
C88 H104 0.951 . S
C89 C88 1.386 . S
C89 C93 1.383 . S
C90 C88 1.383 . S
C90 C91 1.402 . S
C90 H105 0.951 . S
C91 C90 1.402 . S
C91 C92 1.375 . S
C91 C94 1.481 . S
C92 C91 1.375 . S
C92 C93 1.367 . S
C92 H106 0.951 . S
C93 C89 1.383 . S
C93 C92 1.367 . S
C93 H107 0.950 . S
C94 C91 1.481 . S
C94 C95 1.297 . S
C94 H108 0.950 . S
C95 C94 1.297 . S
C95 C96 1.479 . S
C95 H109 0.950 . S
C96 C95 1.479 . S
C96 C97 1.375 . S
C96 C102 1.404 . S
C97 C96 1.375 . S
C97 C98 1.369 . S
C97 H110 0.950 . S
C98 C97 1.369 . S
C98 C99 1.392 . S
C98 H111 0.951 . S
C99 C98 1.392 . S
C99 C101 1.384 . S
H100 C102 0.949 . S
C101 C99 1.384 . S
C101 C102 1.385 . S
C101 H103 0.950 . S
C102 C96 1.404 . S
C102 H100 0.949 . S
C102 C101 1.385 . S
H103 C101 0.950 . S
H104 C88 0.951 . S
H105 C90 0.951 . S
H106 C92 0.951 . S
H107 C93 0.950 . S
H108 C94 0.950 . S
H109 C95 0.950 . S
H110 C97 0.950 . S
H111 C98 0.951 . S
C112 C113 1.386 . S
C112 C114 1.383 . S
C112 H128 0.951 . S
C113 C112 1.386 . S
C113 C117 1.383 . S
C114 C112 1.383 . S
C114 C115 1.402 . S
C114 H129 0.951 . S
C115 C114 1.402 . S
C115 C116 1.375 . S
C115 C118 1.481 . S
C116 C115 1.375 . S
C116 C117 1.367 . S
C116 H130 0.951 . S
C117 C113 1.383 . S
C117 C116 1.367 . S
C117 H131 0.950 . S
C118 C115 1.481 . S
C118 C119 1.297 . S
C118 H132 0.950 . S
C119 C118 1.297 . S
C119 C120 1.479 . S
C119 H133 0.950 . S
C120 C119 1.479 . S
C120 C121 1.375 . S
C120 C126 1.404 . S
C121 C120 1.375 . S
C121 C122 1.369 . S
C121 H134 0.950 . S
C122 C121 1.369 . S
C122 C123 1.392 . S
C122 H135 0.951 . S
C123 C122 1.392 . S
C123 C125 1.384 . S
H124 C126 0.949 . S
C125 C123 1.384 . S
C125 C126 1.385 . S
C125 H127 0.950 . S
C126 C120 1.404 . S
C126 H124 0.949 . S
C126 C125 1.385 . S
H127 C125 0.950 . S
H128 C112 0.951 . S
H129 C114 0.951 . S
H130 C116 0.951 . S
H131 C117 0.950 . S
H132 C118 0.950 . S
H133 C119 0.950 . S
H134 C121 0.950 . S
H135 C122 0.951 . S
C136 C137 1.386 . S
C136 C138 1.383 . S
C136 H152 0.951 . S
C137 C136 1.386 . S
C137 C141 1.383 . S
C138 C136 1.383 . S
C138 C139 1.402 . S
C138 H153 0.951 . S
C139 C138 1.402 . S
C139 C140 1.375 . S
C139 C142 1.481 . S
C140 C139 1.375 . S
C140 C141 1.367 . S
C140 H154 0.951 . S
C141 C137 1.383 . S
C141 C140 1.367 . S
C141 H155 0.950 . S
C142 C139 1.481 . S
C142 C143 1.297 . S
C142 H156 0.950 . S
C143 C142 1.297 . S
C143 C144 1.479 . S
C143 H157 0.950 . S
C144 C143 1.479 . S
C144 C145 1.375 . S
C144 C150 1.404 . S
C145 C144 1.375 . S
C145 C146 1.369 . S
C145 H158 0.950 . S
C146 C145 1.369 . S
C146 C147 1.392 . S
C146 H159 0.951 . S
C147 C146 1.392 . S
C147 C149 1.384 . S
H148 C150 0.949 . S
C149 C147 1.384 . S
C149 C150 1.385 . S
C149 H151 0.950 . S
C150 C144 1.404 . S
C150 H148 0.949 . S
C150 C149 1.385 . S
H151 C149 0.950 . S
H152 C136 0.951 . S
H153 C138 0.951 . S
H154 C140 0.951 . S
H155 C141 0.950 . S
H156 C142 0.950 . S
H157 C143 0.950 . S
H158 C145 0.950 . S
H159 C146 0.951 . S
C160 C161 1.386 . S
C160 C162 1.383 . S
C160 H176 0.951 . S
C161 C160 1.386 . S
C161 C165 1.383 . S
C162 C160 1.383 . S
C162 C163 1.402 . S
C162 H177 0.951 . S
C163 C162 1.402 . S
C163 C164 1.375 . S
C163 C166 1.481 . S
C164 C163 1.375 . S
C164 C165 1.367 . S
C164 H178 0.951 . S
C165 C161 1.383 . S
C165 C164 1.367 . S
C165 H179 0.950 . S
C166 C163 1.481 . S
C166 C167 1.297 . S
C166 H180 0.950 . S
C167 C166 1.297 . S
C167 C168 1.479 . S
C167 H181 0.950 . S
C168 C167 1.479 . S
C168 C169 1.375 . S
C168 C174 1.404 . S
C169 C168 1.375 . S
C169 C170 1.369 . S
C169 H182 0.950 . S
C170 C169 1.369 . S
C170 C171 1.392 . S
C170 H183 0.951 . S
C171 C170 1.392 . S
C171 C173 1.384 . S
H172 C174 0.949 . S
C173 C171 1.384 . S
C173 C174 1.385 . S
C173 H175 0.950 . S
C174 C168 1.404 . S
C174 H172 0.949 . S
C174 C173 1.385 . S
H175 C173 0.950 . S
H176 C160 0.951 . S
H177 C162 0.951 . S
H178 C164 0.951 . S
H179 C165 0.950 . S
H180 C166 0.950 . S
H181 C167 0.950 . S
H182 C169 0.950 . S
H183 C170 0.951 . S
C184 C185 1.386 . S
C184 C186 1.383 . S
C184 H200 0.951 . S
C185 C184 1.386 . S
C185 C189 1.383 . S
C186 C184 1.383 . S
C186 C187 1.402 . S
C186 H201 0.951 . S
C187 C186 1.402 . S
C187 C188 1.375 . S
C187 C190 1.481 . S
C188 C187 1.375 . S
C188 C189 1.367 . S
C188 H202 0.951 . S
C189 C185 1.383 . S
C189 C188 1.367 . S
C189 H203 0.950 . S
C190 C187 1.481 . S
C190 C191 1.297 . S
C190 H204 0.950 . S
C191 C190 1.297 . S
C191 C192 1.479 . S
C191 H205 0.950 . S
C192 C191 1.479 . S
C192 C193 1.375 . S
C192 C198 1.404 . S
C193 C192 1.375 . S
C193 C194 1.369 . S
C193 H206 0.950 . S
C194 C193 1.369 . S
C194 C195 1.392 . S
C194 H207 0.951 . S
C195 C194 1.392 . S
C195 C197 1.384 . S
H196 C198 0.949 . S
C197 C195 1.384 . S
C197 C198 1.385 . S
C197 H199 0.950 . S
C198 C192 1.404 . S
C198 H196 0.949 . S
C198 C197 1.385 . S
H199 C197 0.950 . S
H200 C184 0.951 . S
H201 C186 0.951 . S
H202 C188 0.951 . S
H203 C189 0.950 . S
H204 C190 0.950 . S
H205 C191 0.950 . S
H206 C193 0.950 . S
H207 C194 0.951 . S
C208 C209 1.386 . S
C208 C210 1.383 . S
C208 H224 0.951 . S
C209 C208 1.386 . S
C209 C213 1.383 . S
C210 C208 1.383 . S
C210 C211 1.402 . S
C210 H225 0.951 . S
C211 C210 1.402 . S
C211 C212 1.375 . S
C211 C214 1.481 . S
C212 C211 1.375 . S
C212 C213 1.367 . S
C212 H226 0.951 . S
C213 C209 1.383 . S
C213 C212 1.367 . S
C213 H227 0.950 . S
C214 C211 1.481 . S
C214 C215 1.297 . S
C214 H228 0.950 . S
C215 C214 1.297 . S
C215 C216 1.479 . S
C215 H229 0.950 . S
C216 C215 1.479 . S
C216 C217 1.375 . S
C216 C222 1.404 . S
C217 C216 1.375 . S
C217 C218 1.369 . S
C217 H230 0.950 . S
C218 C217 1.369 . S
C218 C219 1.392 . S
C218 H231 0.951 . S
C219 C218 1.392 . S
C219 C221 1.384 . S
H220 C222 0.949 . S
C221 C219 1.384 . S
C221 C222 1.385 . S
C221 H223 0.950 . S
C222 C216 1.404 . S
C222 H220 0.949 . S
C222 C221 1.385 . S
H223 C221 0.950 . S
H224 C208 0.951 . S
H225 C210 0.951 . S
H226 C212 0.951 . S
H227 C213 0.950 . S
H228 C214 0.950 . S
H229 C215 0.950 . S
H230 C217 0.950 . S
H231 C218 0.951 . S
C232 C233 1.386 . S
C232 C234 1.383 . S
C232 H248 0.951 . S
C233 C232 1.386 . S
C233 C237 1.383 . S
C234 C232 1.383 . S
C234 C235 1.402 . S
C234 H249 0.951 . S
C235 C234 1.402 . S
C235 C236 1.375 . S
C235 C238 1.481 . S
C236 C235 1.375 . S
C236 C237 1.367 . S
C236 H250 0.951 . S
C237 C233 1.383 . S
C237 C236 1.367 . S
C237 H251 0.950 . S
C238 C235 1.481 . S
C238 C239 1.297 . S
C238 H252 0.950 . S
C239 C238 1.297 . S
C239 C240 1.479 . S
C239 H253 0.950 . S
C240 C239 1.479 . S
C240 C241 1.375 . S
C240 C246 1.404 . S
C241 C240 1.375 . S
C241 C242 1.369 . S
C241 H254 0.950 . S
C242 C241 1.369 . S
C242 C243 1.392 . S
C242 H255 0.951 . S
C243 C242 1.392 . S
C243 C245 1.384 . S
H244 C246 0.949 . S
C245 C243 1.384 . S
C245 C246 1.385 . S
C245 H247 0.950 . S
C246 C240 1.404 . S
C246 H244 0.949 . S
C246 C245 1.385 . S
H247 C245 0.950 . S
H248 C232 0.951 . S
H249 C234 0.951 . S
H250 C236 0.951 . S
H251 C237 0.950 . S
H252 C238 0.950 . S
H253 C239 0.950 . S
H254 C241 0.950 . S
H255 C242 0.951 . S
C65 C23 1.435 . S
C75 C55 1.481 . S
C89 C24 1.450 . S
C99 C59 1.447 . S
C113 C8 1.470 . S
C123 C49 1.398 . S
C137 C22 1.442 . S
C147 C54 1.415 . S
C161 C17 1.475 . S
C171 C40 1.431 . S
C195 C56 1.483 . S
C185 C27 1.470 . S
C209 C30 1.472 . S
C219 C62 1.414 . S
C243 C63 1.487 . S
C233 C31 1.478 . S
