# Generated by pormake.
# Topology bcu-b, (8,8)-cn, num edge types: 1
# Building blocks:
#     Node 0, Type 0, BuildingBlock: TAGTUT_clean_sbu_1, # of connection points: 8
#     Node 1, Type 1, BuildingBlock: TAGTUT_clean_sbu_1, # of connection points: 8
#     Edge 2, Type (0, 1), BuildingBlock: CIFDUS_clean_linker_0, # of connection points: 2
#     Edge 3, Type (0, 1), BuildingBlock: CIFDUS_clean_linker_0, # of connection points: 2
#     Edge 4, Type (0, 1), BuildingBlock: CIFDUS_clean_linker_0, # of connection points: 2
#     Edge 5, Type (0, 1), BuildingBlock: CIFDUS_clean_linker_0, # of connection points: 2
#     Edge 6, Type (0, 1), BuildingBlock: CIFDUS_clean_linker_0, # of connection points: 2
#     Edge 7, Type (0, 1), BuildingBlock: CIFDUS_clean_linker_0, # of connection points: 2
#     Edge 8, Type (0, 1), BuildingBlock: CIFDUS_clean_linker_0, # of connection points: 2
#     Edge 9, Type (0, 1), BuildingBlock: CIFDUS_clean_linker_0, # of connection points: 2
# Relax obj value: 0.015
# Max RMSD: 0.074
# Mean RMSD: 0.074
data_MOF--net-bcu-b--node1-TAGTUT_clean_sbu_1--node2-TAGTUT_clean_sbu_1--edge1-CIFDUS_clean_linker_0
_symmetry_space_group_name_H-M    P1
_symmetry_Int_Tables_number       1
_symmetry_cell_setting            triclinic
loop_
_symmetry_equiv_pos_as_xyz
'x, y, z'
_cell_length_a     17.992586
_cell_length_b     16.743743
_cell_length_c     19.769387
_cell_angle_alpha  91.931312
_cell_angle_beta   91.747798
_cell_angle_gamma 109.37256
loop_
_atom_site_label
_atom_site_type_symbol
_atom_site_fract_x
_atom_site_fract_y
_atom_site_fract_z
_atom_type_partial_charge
C0 C 0.81948 0.15247 0.04528 0.0
C1 C 0.88289 0.15063 0.83812 0.0
C2 C 0.87433 0.82446 0.88576 0.0
Mg3 Mg 0.97532 0.17404 -0.0266 0.0
O4 O 0.93741 0.05829 -0.01095 0.0
Mg5 Mg 0.83258 -0.01051 0.94692 0.0
Mg6 Mg 0.00257 -0.01099 -0.03622 0.0
O7 O 0.06782 0.91935 0.93905 0.0
Mg8 Mg 0.03103 0.80349 0.95575 0.0
Mg9 Mg 0.17273 -0.01035 -0.01987 0.0
C10 C 0.13145 0.15394 0.04163 0.0
C11 C 0.13399 0.0971 0.85981 0.0
O12 O 0.78653 0.0794 0.01447 0.0
O13 O 0.8907 0.19863 0.03596 0.0
O14 O 0.84112 0.0788 0.85895 0.0
O15 O 0.94543 0.19675 0.87102 0.0
O16 O 0.09366 0.20137 0.019 0.0
O17 O 0.10545 0.07269 0.03266 0.0
C18 C 0.87033 0.87985 0.0669 0.0
O19 O 0.9433 0.9022 0.05193 0.0
O20 O 0.82132 0.90498 0.03352 0.0
O21 O 0.21888 0.8986 0.91329 0.0
O22 O 0.11452 0.77962 0.89162 0.0
O23 O 0.16483 0.90577 0.07005 0.0
C24 C 0.18572 0.82568 0.88221 0.0
O25 O 0.06712 0.78199 0.05789 0.0
O26 O 0.91193 0.77724 0.90957 0.0
C27 C 0.12637 0.83352 0.09173 0.0
O28 O 0.90013 0.90586 0.89431 0.0
O29 O 0.06137 0.07572 0.87557 0.0
O30 O 0.18301 0.07161 0.89269 0.0
C31 C 0.31713 0.65077 0.54298 0.0
C32 C 0.37748 0.64184 0.33391 0.0
C33 C 0.37363 0.32253 0.38587 0.0
Mg34 Mg 0.47239 0.67323 0.47019 0.0
O35 O 0.436 0.5576 0.48745 0.0
Mg36 Mg 0.33135 0.48652 0.44625 0.0
Mg37 Mg 0.50187 0.48829 0.46356 0.0
O38 O 0.56737 0.41914 0.43905 0.0
Mg39 Mg 0.52956 0.30348 0.45519 0.0
Mg40 Mg 0.67192 0.48844 0.4813 0.0
C41 C 0.62908 0.65361 0.54142 0.0
C42 C 0.63427 0.59694 0.3604 0.0
O43 O 0.28432 0.57758 0.51223 0.0
O44 O 0.38828 0.69701 0.53361 0.0
O45 O 0.33913 0.56967 0.35579 0.0
O46 O 0.43656 0.69369 0.36773 0.0
O47 O 0.59126 0.70032 0.51706 0.0
O48 O 0.60391 0.57218 0.53315 0.0
C49 C 0.37028 0.38056 0.56758 0.0
O50 O 0.44298 0.40216 0.55202 0.0
O51 O 0.32113 0.40539 0.53424 0.0
O52 O 0.71856 0.39831 0.41456 0.0
O53 O 0.61469 0.27873 0.39338 0.0
O54 O 0.66322 0.39979 0.56978 0.0
C55 C 0.68589 0.32497 0.3841 0.0
O56 O 0.55906 0.28166 0.55789 0.0
O57 O 0.41136 0.27527 0.40893 0.0
C58 C 0.62143 0.32809 0.59084 0.0
O59 O 0.39956 0.40377 0.39474 0.0
O60 O 0.56125 0.57451 0.37519 0.0
O61 O 0.68333 0.57229 0.39419 0.0
H62 H 0.15482 0.08417 0.15758 0.0
H63 H 0.2379 0.31342 0.04806 0.0
H64 H 0.31253 0.38993 0.14947 0.0
H65 H 0.35061 0.39211 0.26972 0.0
H66 H 0.26751 0.16286 0.37925 0.0
H67 H 0.19307 0.08629 0.27778 0.0
C68 C 0.19109 0.15026 0.15543 0.0
C69 C 0.1921 0.19298 0.09536 0.0
C70 C 0.23094 0.19443 0.21446 0.0
C71 C 0.23745 0.27916 0.09367 0.0
C72 C 0.27897 0.32312 0.15179 0.0
C73 C 0.3144 0.326 0.27185 0.0
C74 C 0.31328 0.28331 0.33195 0.0
C75 C 0.27464 0.2818 0.21279 0.0
C76 C 0.26803 0.1971 0.33362 0.0
C77 C 0.22662 0.15311 0.27547 0.0
H78 H 0.88407 0.28251 0.13763 0.0
H79 H 0.66688 0.07949 0.0826 0.0
H80 H 0.60921 0.11145 0.18609 0.0
H81 H 0.62159 0.19457 0.29205 0.0
H82 H 0.83867 0.39778 0.34705 0.0
H83 H 0.89649 0.36561 0.24368 0.0
C84 C 0.82368 0.24564 0.14751 0.0
C85 C 0.7797 0.17878 0.10198 0.0
C86 C 0.79172 0.26295 0.20766 0.0
C87 C 0.70188 0.13153 0.11639 0.0
C88 C 0.66917 0.14929 0.17584 0.0
C89 C 0.682 0.23144 0.28221 0.0
C90 C 0.72588 0.29843 0.32766 0.0
C91 C 0.71399 0.21408 0.22211 0.0
C92 C 0.80373 0.34565 0.31331 0.0
C93 C 0.83652 0.32777 0.25393 0.0
H94 H 0.71984 0.8266 0.10808 0.0
H95 H 0.95011 0.80954 0.15531 0.0
H96 H 0.89623 0.72089 0.25018 0.0
H97 H 0.78472 0.64967 0.31898 0.0
H98 H 0.5545 0.66686 0.27174 0.0
H99 H 0.60834 0.75527 0.17676 0.0
C100 C 0.75874 0.80366 0.13886 0.0
C101 C 0.83935 0.82494 0.12428 0.0
C102 C 0.72744 0.75318 0.19317 0.0
C103 C 0.88815 0.79428 0.1651 0.0
C104 C 0.85728 0.74369 0.21938 0.0
C105 C 0.74583 0.67259 0.28817 0.0
C106 C 0.66525 0.65146 0.30281 0.0
C107 C 0.77713 0.72299 0.23381 0.0
C108 C 0.61644 0.68202 0.26191 0.0
C109 C 0.64729 0.73249 0.20758 0.0
H110 H 0.14834 0.68186 0.10076 0.0
H111 H 0.19638 0.92409 0.2067 0.0
H112 H 0.2871 0.89045 0.2866 0.0
H113 H 0.35537 0.79331 0.32476 0.0
H114 H 0.30724 0.55094 0.21903 0.0
H115 H 0.21651 0.58455 0.13906 0.0
C116 C 0.17694 0.72611 0.14257 0.0
C117 C 0.16423 0.80449 0.14887 0.0
C118 C 0.23144 0.70766 0.18668 0.0
C119 C 0.20396 0.86261 0.20178 0.0
C120 C 0.25676 0.84395 0.24678 0.0
C121 C 0.32675 0.749 0.28298 0.0
C122 C 0.33948 0.67064 0.27673 0.0
C123 C 0.27221 0.7674 0.23891 0.0
C124 C 0.29967 0.61243 0.2239 0.0
C125 C 0.24686 0.63109 0.17886 0.0
H126 H 0.12145 0.69364 0.79137 0.0
H127 H 0.33727 0.90031 0.84267 0.0
H128 H 0.39397 0.86773 0.73883 0.0
H129 H 0.38109 0.78308 0.63356 0.0
H130 H 0.16541 0.57621 0.58229 0.0
H131 H 0.10856 0.60895 0.68603 0.0
C132 C 0.18134 0.73125 0.7806 0.0
C133 C 0.22519 0.79929 0.82523 0.0
C134 C 0.21272 0.71352 0.72024 0.0
C135 C 0.30237 0.84736 0.80965 0.0
C136 C 0.33452 0.82923 0.74998 0.0
C137 C 0.32119 0.74546 0.6443 0.0
C138 C 0.27743 0.67731 0.59974 0.0
C139 C 0.28977 0.76321 0.70462 0.0
C140 C 0.20024 0.62925 0.61527 0.0
C141 C 0.16801 0.64746 0.67489 0.0
H142 H 0.28327 0.14608 0.81643 0.0
H143 H 0.05529 0.17174 0.77411 0.0
H144 H 0.10979 0.26202 0.68029 0.0
H145 H 0.22113 0.33219 0.61128 0.0
H146 H 0.44907 0.30646 0.65362 0.0
H147 H 0.39463 0.21642 0.74756 0.0
C148 C 0.24497 0.17121 0.78695 0.0
C149 C 0.16488 0.152 0.80258 0.0
C150 C 0.27663 0.22264 0.73336 0.0
C151 C 0.11684 0.18538 0.76341 0.0
C152 C 0.14807 0.23694 0.7098 0.0
C153 C 0.25942 0.30709 0.6408 0.0
C154 C 0.33947 0.32614 0.62509 0.0
C155 C 0.22778 0.25577 0.69446 0.0
C156 C 0.38754 0.29289 0.66435 0.0
C157 C 0.35635 0.24148 0.71804 0.0
H158 H 0.72972 0.10012 0.79244 0.0
H159 H 0.95638 0.28973 0.76554 0.0
H160 H 0.89358 0.36551 0.69177 0.0
H161 H 0.77451 0.37906 0.63691 0.0
H162 H 0.54787 0.18941 0.6638 0.0
H163 H 0.61063 0.11381 0.73777 0.0
C164 C 0.76587 0.15723 0.76958 0.0
C165 C 0.84805 0.18868 0.78416 0.0
C166 C 0.7291 0.20163 0.7288 0.0
C167 C 0.8933 0.26368 0.75486 0.0
C168 C 0.85726 0.30746 0.71321 0.0
C169 C 0.73835 0.32199 0.65982 0.0
C170 C 0.6562 0.29043 0.64512 0.0
C171 C 0.77511 0.27767 0.7007 0.0
C172 C 0.61093 0.21552 0.67453 0.0
C173 C 0.64695 0.17183 0.71629 0.0
H174 H 0.8503 0.89335 0.76915 0.0
H175 H 0.76856 0.66443 0.87919 0.0
H176 H 0.69243 0.58786 0.77842 0.0
H177 H 0.6525 0.58533 0.65843 0.0
H178 H 0.73404 0.8142 0.54833 0.0
H179 H 0.80988 0.89096 0.6492 0.0
C180 C 0.8141 0.82729 0.77156 0.0
C181 C 0.81388 0.78478 0.83171 0.0
C182 C 0.77312 0.78304 0.71282 0.0
C183 C 0.76856 0.6986 0.83361 0.0
C184 C 0.72606 0.6546 0.77582 0.0
C185 C 0.68854 0.65144 0.65604 0.0
C186 C 0.68893 0.69383 0.5958 0.0
C187 C 0.72932 0.69576 0.71481 0.0
C188 C 0.73397 0.7801 0.59396 0.0
C189 C 0.77631 0.82419 0.6518 0.0
loop_
_geom_bond_atom_site_label_1
_geom_bond_atom_site_label_2
_geom_bond_distance
_geom_bond_site_symmetry_2
_ccdc_geom_bond_type
C0 O12 1.241 . S
C0 O13 1.280 . S
C1 O14 1.277 . S
C1 O15 1.245 . S
C2 O26 1.247 . S
C2 O28 1.289 . S
Mg3 O4 1.926 . S
Mg3 O13 1.984 . S
Mg3 O15 1.988 1_554 S
Mg3 O16 2.061 1_655 S
O4 Mg3 1.926 . S
O4 Mg5 1.986 1_554 S
O4 Mg6 1.917 1_655 S
Mg5 O4 1.986 1_556 S
Mg5 O12 2.043 1_556 S
Mg5 O14 2.041 . S
Mg5 O20 2.038 1_546 S
Mg5 O28 2.237 1_545 S
Mg6 O4 1.917 1_455 S
Mg6 O7 1.917 1_544 S
Mg6 O17 2.106 . S
Mg6 O19 2.079 1_445 S
Mg6 O28 2.106 1_444 S
Mg6 O29 2.079 1_554 S
O7 Mg6 1.917 1_566 S
O7 Mg8 1.926 . S
O7 Mg9 1.986 1_566 S
Mg8 O7 1.926 . S
Mg8 O22 1.984 . S
Mg8 O25 1.988 1_556 S
Mg8 O26 2.061 1_455 S
Mg9 O7 1.986 1_544 S
Mg9 O17 2.237 . S
Mg9 O21 2.043 1_544 S
Mg9 O23 2.041 1_545 S
Mg9 O30 2.038 1_554 S
C10 O16 1.247 . S
C10 O17 1.289 . S
C11 O29 1.245 . S
C11 O30 1.274 . S
O12 C0 1.241 . S
O12 Mg5 2.043 1_554 S
O13 C0 1.280 . S
O13 Mg3 1.984 . S
O14 C1 1.277 . S
O14 Mg5 2.041 . S
O15 C1 1.245 . S
O15 Mg3 1.988 1_556 S
O16 Mg3 2.061 1_455 S
O16 C10 1.247 . S
O17 Mg6 2.106 . S
O17 Mg9 2.237 . S
O17 C10 1.289 . S
C18 O19 1.245 . S
C18 O20 1.274 . S
O19 Mg6 2.079 1_665 S
O19 C18 1.245 . S
O20 Mg5 2.038 1_564 S
O20 C18 1.274 . S
O21 Mg9 2.043 1_566 S
O21 C24 1.241 . S
O22 Mg8 1.984 . S
O22 C24 1.280 . S
O23 Mg9 2.041 1_565 S
O23 C27 1.277 . S
C24 O21 1.241 . S
C24 O22 1.280 . S
O25 Mg8 1.988 1_554 S
O25 C27 1.245 . S
O26 C2 1.247 . S
O26 Mg8 2.061 1_655 S
C27 O23 1.277 . S
C27 O25 1.245 . S
O28 C2 1.289 . S
O28 Mg5 2.237 1_565 S
O28 Mg6 2.106 1_666 S
O29 Mg6 2.079 1_556 S
O29 C11 1.245 . S
O30 Mg9 2.038 1_556 S
O30 C11 1.274 . S
C31 O43 1.241 . S
C31 O44 1.280 . S
C32 O45 1.277 . S
C32 O46 1.245 . S
C33 O57 1.247 . S
C33 O59 1.289 . S
Mg34 O35 1.926 . S
Mg34 O44 1.984 . S
Mg34 O46 1.988 . S
Mg34 O47 2.061 . S
O35 Mg34 1.926 . S
O35 Mg36 1.986 . S
O35 Mg37 1.917 . S
Mg36 O35 1.986 . S
Mg36 O43 2.042 . S
Mg36 O45 2.041 . S
Mg36 O51 2.038 . S
Mg36 O59 2.238 . S
Mg37 O35 1.917 . S
Mg37 O38 1.917 . S
Mg37 O48 2.106 . S
Mg37 O50 2.079 . S
Mg37 O59 2.106 . S
Mg37 O60 2.079 . S
O38 Mg37 1.917 . S
O38 Mg39 1.926 . S
O38 Mg40 1.986 . S
Mg39 O38 1.926 . S
Mg39 O53 1.984 . S
Mg39 O56 1.988 . S
Mg39 O57 2.061 . S
Mg40 O38 1.986 . S
Mg40 O48 2.238 . S
Mg40 O52 2.042 . S
Mg40 O54 2.041 . S
Mg40 O61 2.038 . S
C41 O47 1.247 . S
C41 O48 1.289 . S
C42 O60 1.245 . S
C42 O61 1.274 . S
O43 C31 1.241 . S
O43 Mg36 2.042 . S
O44 C31 1.280 . S
O44 Mg34 1.984 . S
O45 C32 1.277 . S
O45 Mg36 2.041 . S
O46 C32 1.245 . S
O46 Mg34 1.988 . S
O47 Mg34 2.061 . S
O47 C41 1.247 . S
O48 Mg37 2.106 . S
O48 Mg40 2.238 . S
O48 C41 1.289 . S
C49 O50 1.245 . S
C49 O51 1.274 . S
O50 Mg37 2.079 . S
O50 C49 1.245 . S
O51 Mg36 2.038 . S
O51 C49 1.274 . S
O52 Mg40 2.042 . S
O52 C55 1.241 . S
O53 Mg39 1.984 . S
O53 C55 1.280 . S
O54 Mg40 2.041 . S
O54 C58 1.277 . S
C55 O52 1.241 . S
C55 O53 1.280 . S
O56 Mg39 1.988 . S
O56 C58 1.245 . S
O57 C33 1.247 . S
O57 Mg39 2.061 . S
C58 O54 1.277 . S
C58 O56 1.245 . S
O59 C33 1.289 . S
O59 Mg36 2.238 . S
O59 Mg37 2.106 . S
O60 Mg37 2.079 . S
O60 C42 1.245 . S
O61 Mg40 2.038 . S
O61 C42 1.274 . S
H62 C68 0.930 . S
H63 C71 0.930 . S
H64 C72 0.930 . S
H65 C73 0.930 . S
H66 C76 0.930 . S
H67 C77 0.930 . S
C68 H62 0.930 . S
C68 C69 1.355 . S
C68 C70 1.415 . S
C69 C68 1.355 . S
C69 C71 1.419 . S
C70 C68 1.415 . S
C70 C75 1.425 . S
C70 C77 1.409 . S
C71 H63 0.930 . S
C71 C69 1.419 . S
C71 C72 1.362 . S
C72 H64 0.930 . S
C72 C71 1.362 . S
C72 C75 1.409 . S
C73 H65 0.930 . S
C73 C74 1.355 . S
C73 C75 1.415 . S
C74 C73 1.355 . S
C74 C76 1.419 . S
C75 C70 1.425 . S
C75 C72 1.409 . S
C75 C73 1.415 . S
C76 H66 0.930 . S
C76 C74 1.419 . S
C76 C77 1.362 . S
C77 H67 0.930 . S
C77 C70 1.409 . S
C77 C76 1.362 . S
H78 C84 0.930 . S
H79 C87 0.930 . S
H80 C88 0.930 . S
H81 C89 0.930 . S
H82 C92 0.930 . S
H83 C93 0.930 . S
C84 H78 0.930 . S
C84 C85 1.355 . S
C84 C86 1.415 . S
C85 C84 1.355 . S
C85 C87 1.419 . S
C86 C84 1.415 . S
C86 C91 1.425 . S
C86 C93 1.409 . S
C87 H79 0.930 . S
C87 C85 1.419 . S
C87 C88 1.362 . S
C88 H80 0.930 . S
C88 C87 1.362 . S
C88 C91 1.409 . S
C89 H81 0.930 . S
C89 C90 1.355 . S
C89 C91 1.415 . S
C90 C89 1.355 . S
C90 C92 1.419 . S
C91 C86 1.425 . S
C91 C88 1.409 . S
C91 C89 1.415 . S
C92 H82 0.930 . S
C92 C90 1.419 . S
C92 C93 1.362 . S
C93 H83 0.930 . S
C93 C86 1.409 . S
C93 C92 1.362 . S
H94 C100 0.930 . S
H95 C103 0.930 . S
H96 C104 0.930 . S
H97 C105 0.930 . S
H98 C108 0.930 . S
H99 C109 0.930 . S
C100 H94 0.930 . S
C100 C101 1.355 . S
C100 C102 1.415 . S
C101 C100 1.355 . S
C101 C103 1.419 . S
C102 C100 1.415 . S
C102 C107 1.425 . S
C102 C109 1.409 . S
C103 H95 0.930 . S
C103 C101 1.419 . S
C103 C104 1.362 . S
C104 H96 0.930 . S
C104 C103 1.362 . S
C104 C107 1.409 . S
C105 H97 0.930 . S
C105 C106 1.355 . S
C105 C107 1.415 . S
C106 C105 1.355 . S
C106 C108 1.419 . S
C107 C102 1.425 . S
C107 C104 1.409 . S
C107 C105 1.415 . S
C108 H98 0.930 . S
C108 C106 1.419 . S
C108 C109 1.362 . S
C109 H99 0.930 . S
C109 C102 1.409 . S
C109 C108 1.362 . S
H110 C116 0.930 . S
H111 C119 0.930 . S
H112 C120 0.930 . S
H113 C121 0.930 . S
H114 C124 0.930 . S
H115 C125 0.930 . S
C116 H110 0.930 . S
C116 C117 1.355 . S
C116 C118 1.415 . S
C117 C116 1.355 . S
C117 C119 1.419 . S
C118 C116 1.415 . S
C118 C123 1.425 . S
C118 C125 1.409 . S
C119 H111 0.930 . S
C119 C117 1.419 . S
C119 C120 1.362 . S
C120 H112 0.930 . S
C120 C119 1.362 . S
C120 C123 1.409 . S
C121 H113 0.930 . S
C121 C122 1.355 . S
C121 C123 1.415 . S
C122 C121 1.355 . S
C122 C124 1.419 . S
C123 C118 1.425 . S
C123 C120 1.409 . S
C123 C121 1.415 . S
C124 H114 0.930 . S
C124 C122 1.419 . S
C124 C125 1.362 . S
C125 H115 0.930 . S
C125 C118 1.409 . S
C125 C124 1.362 . S
H126 C132 0.930 . S
H127 C135 0.930 . S
H128 C136 0.930 . S
H129 C137 0.930 . S
H130 C140 0.930 . S
H131 C141 0.930 . S
C132 H126 0.930 . S
C132 C133 1.355 . S
C132 C134 1.415 . S
C133 C132 1.355 . S
C133 C135 1.419 . S
C134 C132 1.415 . S
C134 C139 1.425 . S
C134 C141 1.409 . S
C135 H127 0.930 . S
C135 C133 1.419 . S
C135 C136 1.362 . S
C136 H128 0.930 . S
C136 C135 1.362 . S
C136 C139 1.409 . S
C137 H129 0.930 . S
C137 C138 1.355 . S
C137 C139 1.415 . S
C138 C137 1.355 . S
C138 C140 1.419 . S
C139 C134 1.425 . S
C139 C136 1.409 . S
C139 C137 1.415 . S
C140 H130 0.930 . S
C140 C138 1.419 . S
C140 C141 1.362 . S
C141 H131 0.930 . S
C141 C134 1.409 . S
C141 C140 1.362 . S
H142 C148 0.930 . S
H143 C151 0.930 . S
H144 C152 0.930 . S
H145 C153 0.930 . S
H146 C156 0.930 . S
H147 C157 0.930 . S
C148 H142 0.930 . S
C148 C149 1.355 . S
C148 C150 1.415 . S
C149 C148 1.355 . S
C149 C151 1.419 . S
C150 C148 1.415 . S
C150 C155 1.425 . S
C150 C157 1.409 . S
C151 H143 0.930 . S
C151 C149 1.419 . S
C151 C152 1.362 . S
C152 H144 0.930 . S
C152 C151 1.362 . S
C152 C155 1.409 . S
C153 H145 0.930 . S
C153 C154 1.355 . S
C153 C155 1.415 . S
C154 C153 1.355 . S
C154 C156 1.419 . S
C155 C150 1.425 . S
C155 C152 1.409 . S
C155 C153 1.415 . S
C156 H146 0.930 . S
C156 C154 1.419 . S
C156 C157 1.362 . S
C157 H147 0.930 . S
C157 C150 1.409 . S
C157 C156 1.362 . S
H158 C164 0.930 . S
H159 C167 0.930 . S
H160 C168 0.930 . S
H161 C169 0.930 . S
H162 C172 0.930 . S
H163 C173 0.930 . S
C164 H158 0.930 . S
C164 C165 1.355 . S
C164 C166 1.415 . S
C165 C164 1.355 . S
C165 C167 1.419 . S
C166 C164 1.415 . S
C166 C171 1.425 . S
C166 C173 1.409 . S
C167 H159 0.930 . S
C167 C165 1.419 . S
C167 C168 1.362 . S
C168 H160 0.930 . S
C168 C167 1.362 . S
C168 C171 1.409 . S
C169 H161 0.930 . S
C169 C170 1.355 . S
C169 C171 1.415 . S
C170 C169 1.355 . S
C170 C172 1.419 . S
C171 C166 1.425 . S
C171 C168 1.409 . S
C171 C169 1.415 . S
C172 H162 0.930 . S
C172 C170 1.419 . S
C172 C173 1.362 . S
C173 H163 0.930 . S
C173 C166 1.409 . S
C173 C172 1.362 . S
H174 C180 0.930 . S
H175 C183 0.930 . S
H176 C184 0.930 . S
H177 C185 0.930 . S
H178 C188 0.930 . S
H179 C189 0.930 . S
C180 H174 0.930 . S
C180 C181 1.355 . S
C180 C182 1.415 . S
C181 C180 1.355 . S
C181 C183 1.419 . S
C182 C180 1.415 . S
C182 C187 1.425 . S
C182 C189 1.409 . S
C183 H175 0.930 . S
C183 C181 1.419 . S
C183 C184 1.362 . S
C184 H176 0.930 . S
C184 C183 1.362 . S
C184 C187 1.409 . S
C185 H177 0.930 . S
C185 C186 1.355 . S
C185 C187 1.415 . S
C186 C185 1.355 . S
C186 C188 1.419 . S
C187 C182 1.425 . S
C187 C184 1.409 . S
C187 C185 1.415 . S
C188 H178 0.930 . S
C188 C186 1.419 . S
C188 C189 1.362 . S
C189 H179 0.930 . S
C189 C182 1.409 . S
C189 C188 1.362 . S
C69 C10 1.011 . S
C74 C33 1.008 . S
C85 C0 1.522 . S
C90 C55 1.521 . S
C101 C18 1.590 . S
C106 C42 1.589 . S
C117 C27 1.672 . S
C122 C32 1.671 . S
C133 C24 1.525 . S
C138 C31 1.526 . S
C154 C49 1.594 . S
C149 C11 1.595 . S
C165 C1 1.707 . S
C170 C58 1.708 . S
C186 C41 0.946 . S
C181 C2 0.949 . S
