# Generated by pormake.
# Topology bcu-b, (8,8)-cn, num edge types: 1
# Building blocks:
#     Node 0, Type 0, BuildingBlock: VETTIZ_charged_sbu_0, # of connection points: 8
#     Node 1, Type 1, BuildingBlock: TAGTUT_clean_sbu_1, # of connection points: 8
#     Edge 2, Type (0, 1), BuildingBlock: KIFKEQ_clean_linker_1, # of connection points: 2
#     Edge 3, Type (0, 1), BuildingBlock: KIFKEQ_clean_linker_1, # of connection points: 2
#     Edge 4, Type (0, 1), BuildingBlock: KIFKEQ_clean_linker_1, # of connection points: 2
#     Edge 5, Type (0, 1), BuildingBlock: KIFKEQ_clean_linker_1, # of connection points: 2
#     Edge 6, Type (0, 1), BuildingBlock: KIFKEQ_clean_linker_1, # of connection points: 2
#     Edge 7, Type (0, 1), BuildingBlock: KIFKEQ_clean_linker_1, # of connection points: 2
#     Edge 8, Type (0, 1), BuildingBlock: KIFKEQ_clean_linker_1, # of connection points: 2
#     Edge 9, Type (0, 1), BuildingBlock: KIFKEQ_clean_linker_1, # of connection points: 2
# Relax obj value: 0.027
# Max RMSD: 0.119
# Mean RMSD: 0.086
data_MOF--net-bcu-b--node1-VETTIZ_charged_sbu_0--node2-TAGTUT_clean_sbu_1--edge1-KIFKEQ_clean_linker_1
_symmetry_space_group_name_H-M    P1
_symmetry_Int_Tables_number       1
_symmetry_cell_setting            triclinic
loop_
_symmetry_equiv_pos_as_xyz
'x, y, z'
_cell_length_a     20.020242
_cell_length_b     18.873763
_cell_length_c     21.463928
_cell_angle_alpha  89.907447
_cell_angle_beta   90.499978
_cell_angle_gamma 100.16657
loop_
_atom_site_label
_atom_site_type_symbol
_atom_site_fract_x
_atom_site_fract_y
_atom_site_fract_z
_atom_type_partial_charge
Fe0 Fe 0.04429 0.86594 0.98569 0.0
O1 O 0.05219 0.9715 0.98544 0.0
Fe2 Fe 0.99944 1.0166 0.91494 0.0
Fe3 Fe 0.02567 0.02721 0.05762 0.0
O4 O 0.05035 0.97059 0.97933 0.0
O5 O 0.97325 0.07238 -0.01296 0.0
O6 O 0.97498 0.07322 -0.00695 0.0
Fe7 Fe 0.98009 0.17755 -0.01351 0.0
C8 C 0.93588 0.88496 0.08237 0.0
O9 O 0.12292 0.89132 0.04853 0.0
O10 O 0.08453 0.97099 0.11558 0.0
O11 O 0.04468 0.19401 0.91049 0.0
O12 O 0.08467 0.09181 0.89935 0.0
O13 O 0.03581 0.95187 0.84761 0.0
O14 O 0.09941 0.88294 0.90463 0.0
O15 O 0.11128 0.1045 0.04719 0.0
O16 O 0.06264 0.20154 0.04503 0.0
C17 C 0.08097 0.90998 0.85278 0.0
O18 O 0.90138 0.15177 0.92375 0.0
O19 O 0.94022 0.07237 0.85688 0.0
O20 O 0.9798 0.84964 0.06176 0.0
O21 O 0.94016 0.95199 0.07264 0.0
C22 C 0.12581 0.92772 0.09997 0.0
C23 C 0.11233 0.17075 0.05915 0.0
C24 C 0.94344 0.13335 0.11945 0.0
O25 O 0.98872 0.09162 0.12483 0.0
O26 O 0.925 0.16026 0.06754 0.0
C27 C 0.08874 0.15886 0.8898 0.0
O28 O 0.91418 0.93998 0.92674 0.0
O29 O 0.96145 0.84209 0.92696 0.0
C30 C 0.89871 0.11545 0.8723 0.0
C31 C 0.91216 0.8739 0.9139 0.0
C32 C 0.32573 0.68418 0.52981 0.0
C33 C 0.41913 0.67367 0.35737 0.0
C34 C 0.41706 0.39333 0.4072 0.0
Mg35 Mg 0.47469 0.68351 0.48841 0.0
O36 O 0.4456 0.58612 0.50613 0.0
Mg37 Mg 0.36378 0.53689 0.45869 0.0
Mg38 Mg 0.51164 0.52251 0.48631 0.0
O39 O 0.57703 0.45875 0.46601 0.0
Mg40 Mg 0.54759 0.3605 0.4811 0.0
Mg41 Mg 0.65927 0.50769 0.51295 0.0
C42 C 0.60353 0.65191 0.5663 0.0
C43 C 0.63074 0.61289 0.39917 0.0
O44 O 0.30625 0.61984 0.50848 0.0
O45 O 0.38748 0.71672 0.52705 0.0
O46 O 0.38072 0.61663 0.3767 0.0
O47 O 0.46873 0.7053 0.39047 0.0
O48 O 0.56821 0.69612 0.54258 0.0
O49 O 0.58975 0.5837 0.55536 0.0
C50 C 0.39229 0.43244 0.57315 0.0
O51 O 0.4565 0.44775 0.56354 0.0
O52 O 0.34937 0.45915 0.5401 0.0
O53 O 0.71611 0.42495 0.46178 0.0
O54 O 0.63463 0.32885 0.4409 0.0
O55 O 0.64271 0.42655 0.59399 0.0
C56 C 0.6965 0.36124 0.43909 0.0
O57 O 0.55617 0.33641 0.57862 0.0
O58 O 0.45189 0.34741 0.42872 0.0
C59 C 0.60528 0.36832 0.61224 0.0
O60 O 0.43372 0.46123 0.4181 0.0
O61 O 0.56656 0.59735 0.40885 0.0
O62 O 0.67371 0.58623 0.43214 0.0
H63 H 0.12527 0.30966 0.09911 0.0
H64 H 0.21609 0.11917 0.11891 0.0
H65 H 0.19386 0.36579 0.18507 0.0
H66 H 0.28743 0.1771 0.20355 0.0
H67 H 0.34391 0.25792 0.39704 0.0
H68 H 0.27332 0.20768 0.30946 0.0
H69 H 0.3025 0.41764 0.2226 0.0
H70 H 0.37109 0.46827 0.3116 0.0
C71 C 0.16106 0.28022 0.12082 0.0
C72 C 0.16456 0.20941 0.1023 0.0
C73 C 0.20067 0.31274 0.17024 0.0
C74 C 0.24546 0.27569 0.20212 0.0
C75 C 0.25206 0.20653 0.18116 0.0
C76 C 0.21191 0.17363 0.13194 0.0
C77 C 0.3341 0.29359 0.35977 0.0
C78 C 0.36321 0.36698 0.3611 0.0
C79 C 0.29447 0.2646 0.30906 0.0
C80 C 0.28358 0.3081 0.25805 0.0
C81 C 0.30969 0.38242 0.261 0.0
C82 C 0.34877 0.41164 0.31221 0.0
H83 H 1.00691 0.18099 0.22863 0.0
H84 H 0.81134 0.13948 0.1366 0.0
H85 H 0.95617 0.23443 0.31737 0.0
H86 H 0.76079 0.19078 0.22507 0.0
H87 H 0.67966 0.21831 0.41435 0.0
H88 H 0.74675 0.15698 0.34597 0.0
H89 H 0.8906 0.35392 0.32253 0.0
H90 H 0.82254 0.41685 0.39117 0.0
C91 C 0.95293 0.18185 0.22818 0.0
C92 C 0.91265 0.15589 0.17633 0.0
C93 C 0.92426 0.2129 0.27839 0.0
C94 C 0.85479 0.21647 0.27775 0.0
C95 C 0.81442 0.18816 0.22674 0.0
C96 C 0.84321 0.15885 0.17626 0.0
C97 C 0.72603 0.24877 0.39548 0.0
C98 C 0.74496 0.32303 0.40709 0.0
C99 C 0.7645 0.21333 0.35655 0.0
C100 C 0.82318 0.25099 0.32869 0.0
C101 C 0.84547 0.32383 0.34385 0.0
C102 C 0.80651 0.35977 0.38288 0.0
H103 H 0.85683 0.94674 0.16189 0.0
H104 H 0.88867 0.73994 0.09389 0.0
H105 H 0.77105 0.88652 0.23358 0.0
H106 H 0.80197 0.67994 0.16537 0.0
H107 H 0.60552 0.59864 0.27411 0.0
H108 H 0.67144 0.66776 0.19082 0.0
H109 H 0.78537 0.80604 0.32916 0.0
H110 H 0.72107 0.73603 0.4117 0.0
C111 C 0.84496 0.88846 0.16156 0.0
C112 C 0.88013 0.84812 0.12241 0.0
C113 C 0.79582 0.85408 0.20271 0.0
C114 C 0.77977 0.77862 0.20495 0.0
C115 C 0.81285 0.73822 0.16416 0.0
C116 C 0.86289 0.77258 0.12365 0.0
C117 C 0.6434 0.64507 0.28625 0.0
C118 C 0.65808 0.66268 0.34898 0.0
C119 C 0.68147 0.68407 0.23884 0.0
C120 C 0.73361 0.74212 0.25361 0.0
C121 C 0.74521 0.76202 0.31634 0.0
C122 C 0.70841 0.72212 0.36354 0.0
H123 H 0.26099 0.94819 0.0808 0.0
H124 H 0.10698 0.86934 0.21545 0.0
H125 H 0.34342 0.89159 0.1392 0.0
H126 H 0.18893 0.81123 0.27314 0.0
H127 H 0.31068 0.62642 0.28125 0.0
H128 H 0.24531 0.7018 0.22319 0.0
H129 H 0.40029 0.88741 0.25792 0.0
H130 H 0.46587 0.81247 0.31803 0.0
C131 C 0.24567 0.92086 0.12417 0.0
C132 C 0.17814 0.91347 0.14426 0.0
C133 C 0.29258 0.88826 0.15721 0.0
C134 C 0.272 0.84636 0.20988 0.0
C135 C 0.20563 0.84293 0.23223 0.0
C136 C 0.15909 0.8768 0.19986 0.0
C137 C 0.33197 0.68292 0.27554 0.0
C138 C 0.39309 0.71349 0.30548 0.0
C139 C 0.29399 0.72614 0.24284 0.0
C140 C 0.31693 0.80053 0.23805 0.0
C141 C 0.38122 0.83021 0.26202 0.0
C142 C 0.41898 0.78706 0.29578 0.0
H143 H 0.21257 0.90083 0.83595 0.0
H144 H 0.01763 0.86572 0.74264 0.0
H145 H 0.26258 0.85042 0.74667 0.0
H146 H 0.0678 0.81309 0.65315 0.0
H147 H 0.1994 0.62894 0.5773 0.0
H148 H 0.13201 0.69142 0.64692 0.0
H149 H 0.27705 0.88779 0.62547 0.0
H150 H 0.34346 0.82698 0.55596 0.0
C151 C 0.18071 0.88297 0.79591 0.0
C152 C 0.11157 0.8875 0.79572 0.0
C153 C 0.20921 0.85419 0.74496 0.0
C154 C 0.16884 0.82794 0.69334 0.0
C155 C 0.09971 0.83301 0.6926 0.0
C156 C 0.07136 0.86358 0.74328 0.0
C157 C 0.21584 0.68584 0.58618 0.0
C158 C 0.27752 0.72251 0.56214 0.0
C159 C 0.17725 0.72152 0.62579 0.0
C160 C 0.20007 0.79402 0.6418 0.0
C161 C 0.25888 0.83171 0.61418 0.0
C162 C 0.29695 0.79655 0.57458 0.0
H163 H 0.16703 0.09746 0.8094 0.0
H164 H 0.1363 0.30387 0.87927 0.0
H165 H 0.25252 0.15806 0.73764 0.0
H166 H 0.22277 0.36424 0.80773 0.0
H167 H 0.41914 0.44494 0.69806 0.0
H168 H 0.35372 0.37532 0.7814 0.0
H169 H 0.23663 0.24011 0.64289 0.0
H170 H 0.30041 0.31061 0.56034 0.0
C171 C 0.17912 0.15572 0.81013 0.0
C172 C 0.14433 0.19588 0.84978 0.0
C173 C 0.22808 0.19031 0.76897 0.0
C174 C 0.24433 0.26576 0.76725 0.0
C175 C 0.21169 0.30596 0.80856 0.0
C176 C 0.16179 0.2714 0.84908 0.0
C177 C 0.38061 0.3991 0.68587 0.0
C178 C 0.36486 0.38251 0.62314 0.0
C179 C 0.34288 0.35982 0.7333 0.0
C180 C 0.29005 0.30249 0.71849 0.0
C181 C 0.27734 0.28358 0.65569 0.0
C182 C 0.3138 0.32377 0.60851 0.0
H183 H 0.76352 0.09689 0.89151 0.0
H184 H 0.91775 0.1717 0.75596 0.0
H185 H 0.68145 0.15266 0.83183 0.0
H186 H 0.83616 0.22911 0.69701 0.0
H187 H 0.71454 0.41526 0.68758 0.0
H188 H 0.77991 0.34015 0.74588 0.0
H189 H 0.62491 0.15441 0.7118 0.0
H190 H 0.55932 0.22909 0.6513 0.0
C191 C 0.77899 0.12319 0.84774 0.0
C192 C 0.8465 0.12964 0.82775 0.0
C193 C 0.73226 0.15528 0.81393 0.0
C194 C 0.75295 0.19581 0.76053 0.0
C195 C 0.81932 0.19839 0.73841 0.0
C196 C 0.86567 0.16496 0.77154 0.0
C197 C 0.69324 0.35878 0.69339 0.0
C198 C 0.63197 0.32818 0.66365 0.0
C199 C 0.73125 0.3157 0.72624 0.0
C200 C 0.70826 0.24137 0.73147 0.0
C201 C 0.64403 0.21157 0.70741 0.0
C202 C 0.60625 0.25457 0.67341 0.0
H203 H 0.83126 0.93666 0.83643 0.0
H204 H 0.87666 0.72961 0.89058 0.0
H205 H 0.76012 0.88032 0.75225 0.0
H206 H 0.80204 0.67199 0.80773 0.0
H207 H 0.71926 0.60524 0.60985 0.0
H208 H 0.79201 0.65651 0.69745 0.0
H209 H 0.65751 0.8082 0.73043 0.0
H210 H 0.58894 0.76085 0.64252 0.0
C211 C 0.82442 0.87869 0.83153 0.0
C212 C 0.85931 0.83762 0.8705 0.0
C213 C 0.7835 0.84611 0.78301 0.0
C214 C 0.77504 0.77126 0.77293 0.0
C215 C 0.80822 0.72979 0.8133 0.0
C216 C 0.85019 0.76269 0.86136 0.0
C217 C 0.70621 0.65007 0.63567 0.0
C218 C 0.64956 0.68021 0.6182 0.0
C219 C 0.7473 0.67906 0.68616 0.0
C220 C 0.73133 0.73751 0.72061 0.0
C221 C 0.67313 0.76522 0.70398 0.0
C222 C 0.63349 0.73768 0.6533 0.0
loop_
_geom_bond_atom_site_label_1
_geom_bond_atom_site_label_2
_geom_bond_distance
_geom_bond_site_symmetry_2
_ccdc_geom_bond_type
Fe0 O1 1.894 . S
Fe0 O4 1.706 1_554 S
Fe0 O9 2.085 1_655 S
Fe0 O14 1.928 1_654 S
Fe0 O20 2.085 . S
Fe0 O29 1.929 1_554 S
O1 Fe0 1.894 . S
O1 Fe3 1.715 1_665 S
Fe2 O4 1.886 . S
Fe2 O5 1.715 1_665 S
Fe2 O12 1.935 1_665 S
Fe2 O13 2.077 1_655 S
Fe2 O19 1.935 1_565 S
Fe2 O28 2.077 . S
Fe3 O1 1.715 1_445 S
Fe3 O6 1.886 . S
Fe3 O10 1.935 1_545 S
Fe3 O15 2.077 . S
Fe3 O21 1.935 1_445 S
Fe3 O25 2.077 1_455 S
O4 Fe0 1.706 1_556 S
O4 Fe2 1.886 . S
O5 Fe2 1.715 1_445 S
O5 Fe7 1.891 . S
O6 Fe3 1.886 . S
O6 Fe7 1.709 1_554 S
Fe7 O5 1.891 . S
Fe7 O6 1.709 1_556 S
Fe7 O11 2.083 . S
Fe7 O16 1.931 1_556 S
Fe7 O18 2.082 1_455 S
Fe7 O26 1.931 1_456 S
C8 O20 1.381 . S
C8 O21 1.421 . S
O9 Fe0 2.085 1_455 S
O9 C22 1.381 . S
O10 Fe3 1.935 1_565 S
O10 C22 1.421 . S
O11 Fe7 2.083 . S
O11 C27 1.381 . S
O12 Fe2 1.935 1_445 S
O12 C27 1.421 . S
O13 Fe2 2.077 1_455 S
O13 C17 1.381 . S
O14 Fe0 1.928 1_456 S
O14 C17 1.421 . S
O15 Fe3 2.077 . S
O15 C23 1.381 . S
O16 Fe7 1.931 1_554 S
O16 C23 1.421 . S
C17 O13 1.381 . S
C17 O14 1.421 . S
O18 Fe7 2.082 1_655 S
O18 C30 1.381 . S
O19 Fe2 1.935 1_545 S
O19 C30 1.421 . S
O20 Fe0 2.085 . S
O20 C8 1.381 . S
O21 Fe3 1.935 1_665 S
O21 C8 1.421 . S
C22 O9 1.381 . S
C22 O10 1.421 . S
C23 O15 1.381 . S
C23 O16 1.421 . S
C24 O25 1.381 . S
C24 O26 1.421 . S
O25 Fe3 2.077 1_655 S
O25 C24 1.381 . S
O26 Fe7 1.931 1_654 S
O26 C24 1.421 . S
C27 O11 1.381 . S
C27 O12 1.421 . S
O28 Fe2 2.077 . S
O28 C31 1.381 . S
O29 Fe0 1.929 1_556 S
O29 C31 1.421 . S
C30 O18 1.381 . S
C30 O19 1.421 . S
C31 O28 1.381 . S
C31 O29 1.421 . S
C32 O44 1.241 . S
C32 O45 1.280 . S
C33 O46 1.277 . S
C33 O47 1.245 . S
C34 O58 1.247 . S
C34 O60 1.289 . S
Mg35 O36 1.926 . S
Mg35 O45 1.984 . S
Mg35 O47 1.988 . S
Mg35 O48 2.061 . S
O36 Mg35 1.926 . S
O36 Mg37 1.986 . S
O36 Mg38 1.917 . S
Mg37 O36 1.986 . S
Mg37 O44 2.042 . S
Mg37 O46 2.041 . S
Mg37 O52 2.038 . S
Mg37 O60 2.238 . S
Mg38 O36 1.917 . S
Mg38 O39 1.917 . S
Mg38 O49 2.106 . S
Mg38 O51 2.079 . S
Mg38 O60 2.106 . S
Mg38 O61 2.079 . S
O39 Mg38 1.917 . S
O39 Mg40 1.926 . S
O39 Mg41 1.986 . S
Mg40 O39 1.926 . S
Mg40 O54 1.984 . S
Mg40 O57 1.988 . S
Mg40 O58 2.061 . S
Mg41 O39 1.986 . S
Mg41 O49 2.238 . S
Mg41 O53 2.042 . S
Mg41 O55 2.041 . S
Mg41 O62 2.038 . S
C42 O48 1.247 . S
C42 O49 1.289 . S
C43 O61 1.245 . S
C43 O62 1.274 . S
O44 C32 1.241 . S
O44 Mg37 2.042 . S
O45 C32 1.280 . S
O45 Mg35 1.984 . S
O46 C33 1.277 . S
O46 Mg37 2.041 . S
O47 C33 1.245 . S
O47 Mg35 1.988 . S
O48 Mg35 2.061 . S
O48 C42 1.247 . S
O49 Mg38 2.106 . S
O49 Mg41 2.238 . S
O49 C42 1.289 . S
C50 O51 1.245 . S
C50 O52 1.274 . S
O51 Mg38 2.079 . S
O51 C50 1.245 . S
O52 Mg37 2.038 . S
O52 C50 1.274 . S
O53 Mg41 2.042 . S
O53 C56 1.241 . S
O54 Mg40 1.984 . S
O54 C56 1.280 . S
O55 Mg41 2.041 . S
O55 C59 1.277 . S
C56 O53 1.241 . S
C56 O54 1.280 . S
O57 Mg40 1.988 . S
O57 C59 1.245 . S
O58 C34 1.247 . S
O58 Mg40 2.061 . S
C59 O55 1.277 . S
C59 O57 1.245 . S
O60 C34 1.289 . S
O60 Mg37 2.238 . S
O60 Mg38 2.106 . S
O61 Mg38 2.079 . S
O61 C43 1.245 . S
O62 Mg41 2.038 . S
O62 C43 1.274 . S
H63 C71 0.950 . S
H64 C76 0.950 . S
H65 C73 0.950 . S
H66 C75 0.950 . S
H67 C77 0.950 . S
H68 C79 0.950 . S
H69 C81 0.950 . S
H70 C82 0.950 . S
C71 H63 0.950 . S
C71 C72 1.386 . S
C71 C73 1.391 . S
C72 C71 1.386 . S
C72 C76 1.393 . S
C73 H65 0.950 . S
C73 C71 1.391 . S
C73 C74 1.400 . S
C74 C73 1.400 . S
C74 C75 1.398 . S
C74 C80 1.491 . S
C75 H66 0.950 . S
C75 C74 1.398 . S
C75 C76 1.391 . S
C76 H64 0.950 . S
C76 C72 1.393 . S
C76 C75 1.391 . S
C77 H67 0.950 . S
C77 C78 1.386 . S
C77 C79 1.391 . S
C78 C77 1.386 . S
C78 C82 1.393 . S
C79 H68 0.950 . S
C79 C77 1.391 . S
C79 C80 1.400 . S
C80 C74 1.491 . S
C80 C79 1.400 . S
C80 C81 1.398 . S
C81 H69 0.950 . S
C81 C80 1.398 . S
C81 C82 1.391 . S
C82 H70 0.950 . S
C82 C78 1.393 . S
C82 C81 1.391 . S
H83 C91 0.950 . S
H84 C96 0.950 . S
H85 C93 0.950 . S
H86 C95 0.950 . S
H87 C97 0.950 . S
H88 C99 0.950 . S
H89 C101 0.950 . S
H90 C102 0.950 . S
C91 H83 0.950 . S
C91 C92 1.386 . S
C91 C93 1.391 . S
C92 C91 1.386 . S
C92 C96 1.393 . S
C93 H85 0.950 . S
C93 C91 1.391 . S
C93 C94 1.400 . S
C94 C93 1.400 . S
C94 C95 1.398 . S
C94 C100 1.491 . S
C95 H86 0.950 . S
C95 C94 1.398 . S
C95 C96 1.391 . S
C96 H84 0.950 . S
C96 C92 1.393 . S
C96 C95 1.391 . S
C97 H87 0.950 . S
C97 C98 1.386 . S
C97 C99 1.391 . S
C98 C97 1.386 . S
C98 C102 1.393 . S
C99 H88 0.950 . S
C99 C97 1.391 . S
C99 C100 1.400 . S
C100 C94 1.491 . S
C100 C99 1.400 . S
C100 C101 1.398 . S
C101 H89 0.950 . S
C101 C100 1.398 . S
C101 C102 1.391 . S
C102 H90 0.950 . S
C102 C98 1.393 . S
C102 C101 1.391 . S
H103 C111 0.950 . S
H104 C116 0.950 . S
H105 C113 0.950 . S
H106 C115 0.950 . S
H107 C117 0.950 . S
H108 C119 0.950 . S
H109 C121 0.950 . S
H110 C122 0.950 . S
C111 H103 0.950 . S
C111 C112 1.386 . S
C111 C113 1.391 . S
C112 C111 1.386 . S
C112 C116 1.393 . S
C113 H105 0.950 . S
C113 C111 1.391 . S
C113 C114 1.400 . S
C114 C113 1.400 . S
C114 C115 1.398 . S
C114 C120 1.491 . S
C115 H106 0.950 . S
C115 C114 1.398 . S
C115 C116 1.391 . S
C116 H104 0.950 . S
C116 C112 1.393 . S
C116 C115 1.391 . S
C117 H107 0.950 . S
C117 C118 1.386 . S
C117 C119 1.391 . S
C118 C117 1.386 . S
C118 C122 1.393 . S
C119 H108 0.950 . S
C119 C117 1.391 . S
C119 C120 1.400 . S
C120 C114 1.491 . S
C120 C119 1.400 . S
C120 C121 1.398 . S
C121 H109 0.950 . S
C121 C120 1.398 . S
C121 C122 1.391 . S
C122 H110 0.950 . S
C122 C118 1.393 . S
C122 C121 1.391 . S
H123 C131 0.950 . S
H124 C136 0.950 . S
H125 C133 0.950 . S
H126 C135 0.950 . S
H127 C137 0.950 . S
H128 C139 0.950 . S
H129 C141 0.950 . S
H130 C142 0.950 . S
C131 H123 0.950 . S
C131 C132 1.386 . S
C131 C133 1.391 . S
C132 C131 1.386 . S
C132 C136 1.393 . S
C133 H125 0.950 . S
C133 C131 1.391 . S
C133 C134 1.400 . S
C134 C133 1.400 . S
C134 C135 1.398 . S
C134 C140 1.491 . S
C135 H126 0.950 . S
C135 C134 1.398 . S
C135 C136 1.391 . S
C136 H124 0.950 . S
C136 C132 1.393 . S
C136 C135 1.391 . S
C137 H127 0.950 . S
C137 C138 1.386 . S
C137 C139 1.391 . S
C138 C137 1.386 . S
C138 C142 1.393 . S
C139 H128 0.950 . S
C139 C137 1.391 . S
C139 C140 1.400 . S
C140 C134 1.491 . S
C140 C139 1.400 . S
C140 C141 1.398 . S
C141 H129 0.950 . S
C141 C140 1.398 . S
C141 C142 1.391 . S
C142 H130 0.950 . S
C142 C138 1.393 . S
C142 C141 1.391 . S
H143 C151 0.950 . S
H144 C156 0.950 . S
H145 C153 0.950 . S
H146 C155 0.950 . S
H147 C157 0.950 . S
H148 C159 0.950 . S
H149 C161 0.950 . S
H150 C162 0.950 . S
C151 H143 0.950 . S
C151 C152 1.386 . S
C151 C153 1.391 . S
C152 C151 1.386 . S
C152 C156 1.393 . S
C153 H145 0.950 . S
C153 C151 1.391 . S
C153 C154 1.400 . S
C154 C153 1.400 . S
C154 C155 1.398 . S
C154 C160 1.491 . S
C155 H146 0.950 . S
C155 C154 1.398 . S
C155 C156 1.391 . S
C156 H144 0.950 . S
C156 C152 1.393 . S
C156 C155 1.391 . S
C157 H147 0.950 . S
C157 C158 1.386 . S
C157 C159 1.391 . S
C158 C157 1.386 . S
C158 C162 1.393 . S
C159 H148 0.950 . S
C159 C157 1.391 . S
C159 C160 1.400 . S
C160 C154 1.491 . S
C160 C159 1.400 . S
C160 C161 1.398 . S
C161 H149 0.950 . S
C161 C160 1.398 . S
C161 C162 1.391 . S
C162 H150 0.950 . S
C162 C158 1.393 . S
C162 C161 1.391 . S
H163 C171 0.950 . S
H164 C176 0.950 . S
H165 C173 0.950 . S
H166 C175 0.950 . S
H167 C177 0.950 . S
H168 C179 0.950 . S
H169 C181 0.950 . S
H170 C182 0.950 . S
C171 H163 0.950 . S
C171 C172 1.386 . S
C171 C173 1.391 . S
C172 C171 1.386 . S
C172 C176 1.393 . S
C173 H165 0.950 . S
C173 C171 1.391 . S
C173 C174 1.400 . S
C174 C173 1.400 . S
C174 C175 1.398 . S
C174 C180 1.491 . S
C175 H166 0.950 . S
C175 C174 1.398 . S
C175 C176 1.391 . S
C176 H164 0.950 . S
C176 C172 1.393 . S
C176 C175 1.391 . S
C177 H167 0.950 . S
C177 C178 1.386 . S
C177 C179 1.391 . S
C178 C177 1.386 . S
C178 C182 1.393 . S
C179 H168 0.950 . S
C179 C177 1.391 . S
C179 C180 1.400 . S
C180 C174 1.491 . S
C180 C179 1.400 . S
C180 C181 1.398 . S
C181 H169 0.950 . S
C181 C180 1.398 . S
C181 C182 1.391 . S
C182 H170 0.950 . S
C182 C178 1.393 . S
C182 C181 1.391 . S
H183 C191 0.950 . S
H184 C196 0.950 . S
H185 C193 0.950 . S
H186 C195 0.950 . S
H187 C197 0.950 . S
H188 C199 0.950 . S
H189 C201 0.950 . S
H190 C202 0.950 . S
C191 H183 0.950 . S
C191 C192 1.386 . S
C191 C193 1.391 . S
C192 C191 1.386 . S
C192 C196 1.393 . S
C193 H185 0.950 . S
C193 C191 1.391 . S
C193 C194 1.400 . S
C194 C193 1.400 . S
C194 C195 1.398 . S
C194 C200 1.491 . S
C195 H186 0.950 . S
C195 C194 1.398 . S
C195 C196 1.391 . S
C196 H184 0.950 . S
C196 C192 1.393 . S
C196 C195 1.391 . S
C197 H187 0.950 . S
C197 C198 1.386 . S
C197 C199 1.391 . S
C198 C197 1.386 . S
C198 C202 1.393 . S
C199 H188 0.950 . S
C199 C197 1.391 . S
C199 C200 1.400 . S
C200 C194 1.491 . S
C200 C199 1.400 . S
C200 C201 1.398 . S
C201 H189 0.950 . S
C201 C200 1.398 . S
C201 C202 1.391 . S
C202 H190 0.950 . S
C202 C198 1.393 . S
C202 C201 1.391 . S
H203 C211 0.950 . S
H204 C216 0.950 . S
H205 C213 0.950 . S
H206 C215 0.950 . S
H207 C217 0.950 . S
H208 C219 0.950 . S
H209 C221 0.950 . S
H210 C222 0.950 . S
C211 H203 0.950 . S
C211 C212 1.386 . S
C211 C213 1.391 . S
C212 C211 1.386 . S
C212 C216 1.393 . S
C213 H205 0.950 . S
C213 C211 1.391 . S
C213 C214 1.400 . S
C214 C213 1.400 . S
C214 C215 1.398 . S
C214 C220 1.491 . S
C215 H206 0.950 . S
C215 C214 1.398 . S
C215 C216 1.391 . S
C216 H204 0.950 . S
C216 C212 1.393 . S
C216 C215 1.391 . S
C217 H207 0.950 . S
C217 C218 1.386 . S
C217 C219 1.391 . S
C218 C217 1.386 . S
C218 C222 1.393 . S
C219 H208 0.950 . S
C219 C217 1.391 . S
C219 C220 1.400 . S
C220 C214 1.491 . S
C220 C219 1.400 . S
C220 C221 1.398 . S
C221 H209 0.950 . S
C221 C220 1.398 . S
C221 C222 1.391 . S
C222 H210 0.950 . S
C222 C218 1.393 . S
C222 C221 1.391 . S
C72 C23 1.166 . S
C78 C34 1.154 . S
C92 C24 1.528 . S
C98 C56 1.521 . S
C112 C8 1.514 . S
C118 C43 1.480 . S
C132 C22 1.586 . S
C138 C33 1.607 . S
C152 C17 1.509 . S
C158 C32 1.514 . S
C178 C50 1.501 . S
C172 C27 1.495 . S
C192 C30 1.591 . S
C198 C59 1.599 . S
C218 C42 1.185 . S
C212 C31 1.173 . S
