# Generated by pormake.
# Topology pts, (4,4)-cn, num edge types: 1
# Building blocks:
#     Node 0, Type 0, BuildingBlock: KOZSID_clean_sbu_0, # of connection points: 4
#     Node 1, Type 0, BuildingBlock: KOZSID_clean_sbu_0, # of connection points: 4
#     Node 2, Type 1, BuildingBlock: QUQFOY_clean_sbu_1, # of connection points: 4
#     Node 3, Type 1, BuildingBlock: QUQFOY_clean_sbu_1, # of connection points: 4
#     Edge 4, Type (0, 1), BuildingBlock: AJUNOK_clean_linker_0, # of connection points: 2
#     Edge 5, Type (0, 1), BuildingBlock: AJUNOK_clean_linker_0, # of connection points: 2
#     Edge 6, Type (0, 1), BuildingBlock: AJUNOK_clean_linker_0, # of connection points: 2
#     Edge 7, Type (0, 1), BuildingBlock: AJUNOK_clean_linker_0, # of connection points: 2
#     Edge 8, Type (0, 1), BuildingBlock: AJUNOK_clean_linker_0, # of connection points: 2
#     Edge 9, Type (0, 1), BuildingBlock: AJUNOK_clean_linker_0, # of connection points: 2
#     Edge 10, Type (0, 1), BuildingBlock: AJUNOK_clean_linker_0, # of connection points: 2
#     Edge 11, Type (0, 1), BuildingBlock: AJUNOK_clean_linker_0, # of connection points: 2
# Relax obj value: 0.093
# Max RMSD: 0.255
# Mean RMSD: 0.145
data_MOF--net-pts--node1-KOZSID_clean_sbu_0--node2-QUQFOY_clean_sbu_1--edge1-AJUNOK_clean_linker_0
_symmetry_space_group_name_H-M    P1
_symmetry_Int_Tables_number       1
_symmetry_cell_setting            triclinic
loop_
_symmetry_equiv_pos_as_xyz
'x, y, z'
_cell_length_a     19.297149
_cell_length_b     21.907942
_cell_length_c     32.008946
_cell_angle_alpha  85.177469
_cell_angle_beta   95.435188
_cell_angle_gamma 90.032653
loop_
_atom_site_label
_atom_site_type_symbol
_atom_site_fract_x
_atom_site_fract_y
_atom_site_fract_z
_atom_type_partial_charge
C0 C 0.67212 0.14167 0.07055 0.0
C1 C 0.68849 0.19838 0.08515 0.0
C2 C 0.64792 0.24065 0.06043 0.0
C3 C 0.60853 0.20747 0.03269 0.0
N4 N 0.62145 0.14651 0.03803 0.0
Co5 Co 0.57038 0.08137 0.00726 0.0
N6 N 0.51205 0.14392 0.97015 0.0
C7 C 0.51691 0.20553 0.97013 0.0
C8 C 0.47009 0.23697 0.9414 0.0
C9 C 0.4335 0.19292 0.92144 0.0
C10 C 0.46067 0.13676 0.93898 0.0
N11 N 0.51667 0.01605 0.97809 0.0
C12 C 0.46443 0.02071 0.94645 0.0
C13 C 0.44236 0.96338 0.93533 0.0
C14 C 0.48111 0.92114 0.96123 0.0
C15 C 0.52478 0.95475 0.98645 0.0
N16 N 0.63132 0.01901 0.04282 0.0
C17 C 0.63069 0.9577 0.04023 0.0
C18 C 0.6814 0.92672 0.06649 0.0
C19 C 0.71688 0.97083 0.08708 0.0
C20 C 0.68501 0.02644 0.07251 0.0
N21 N 0.50168 0.07755 0.04992 0.0
C22 C 0.40252 0.07119 0.10948 0.0
C23 C 0.44118 0.01961 0.10286 0.0
C24 C 0.48962 0.02364 0.073 0.0
C25 C 0.41543 0.12633 0.08642 0.0
C26 C 0.46491 0.12853 0.05716 0.0
N27 N 0.63906 0.08495 0.96461 0.0
C28 C 0.70381 0.03437 0.9162 0.0
C29 C 0.73785 0.08861 0.90477 0.0
C30 C 0.72118 0.14127 0.92372 0.0
C31 C 0.67145 0.13861 0.95295 0.0
C32 C 0.65566 0.03343 0.94607 0.0
H33 H 0.66053 0.18044 0.96597 0.0
H34 H 0.63292 0.99018 0.95369 0.0
H35 H 0.51654 0.98237 0.06915 0.0
H36 H 0.47209 0.17197 0.04064 0.0
C37 C 0.56128 0.23236 1.00015 0.0
C38 C 0.70743 0.0849 0.08794 0.0
C39 C 0.43518 0.07806 0.92539 0.0
C40 C 0.5793 0.93034 0.0146 0.0
H41 H 0.72631 0.20836 0.11079 0.0
H42 H 0.6475 0.28975 0.06228 0.0
H43 H 0.46226 0.28605 0.93633 0.0
H44 H 0.39098 0.20145 0.8971 0.0
H45 H 0.40326 0.95296 0.9105 0.0
H46 H 0.47934 0.87181 0.96073 0.0
H47 H 0.69108 0.87781 0.07045 0.0
H48 H 0.76112 0.96271 0.11029 0.0
H49 H 0.43437 0.97616 0.12073 0.0
H50 H 0.38666 0.16756 0.0904 0.0
H51 H 0.71438 0.99237 0.90226 0.0
H52 H 0.74727 0.18419 0.9168 0.0
C53 C 0.13683 0.48297 0.5736 0.0
C54 C 0.20145 0.45998 0.59044 0.0
C55 C 0.2501 0.49487 0.57155 0.0
C56 C 0.21259 0.53679 0.54423 0.0
N57 N 0.14286 0.53161 0.54503 0.0
Co58 Co 0.0692 0.57956 0.5075 0.0
N59 N 0.14082 0.6292 0.47841 0.0
C60 C 0.21071 0.6256 0.48727 0.0
C61 C 0.24648 0.66789 0.46385 0.0
C62 C 0.19643 0.70137 0.43901 0.0
C63 C 0.13278 0.67738 0.44879 0.0
N64 N 0.99561 0.62535 0.46861 0.0
C65 C 0.00142 0.67213 0.4386 0.0
C66 C 0.93682 0.69093 0.41895 0.0
C67 C 0.88847 0.65515 0.43745 0.0
C68 C 0.92605 0.61666 0.46718 0.0
N69 N 0.99755 0.53204 0.53791 0.0
C70 C 0.92768 0.53953 0.53162 0.0
C71 C 0.89179 0.50012 0.55712 0.0
C72 C 0.94168 0.46497 0.5809 0.0
C73 C 0.00533 0.48489 0.56828 0.0
N74 N 0.06762 0.64339 0.54818 0.0
C75 C 0.06746 0.74044 0.60075 0.0
C76 C 0.00621 0.72281 0.57839 0.0
C77 C 0.00727 0.67415 0.55283 0.0
C78 C 0.12838 0.70767 0.59747 0.0
C79 C 0.12744 0.65995 0.57101 0.0
N80 N 0.07083 0.51577 0.46682 0.0
C81 C 0.01264 0.43646 0.42863 0.0
C82 C 0.07462 0.42039 0.41308 0.0
C83 C 0.13457 0.45311 0.42448 0.0
C84 C 0.13161 0.50013 0.45124 0.0
C85 C 0.01171 0.48434 0.45485 0.0
H86 H 0.17934 0.52272 0.45918 0.0
H87 H 0.96255 0.49482 0.46519 0.0
H88 H 0.95865 0.66269 0.53691 0.0
H89 H 0.17599 0.63772 0.56919 0.0
C90 C 0.24116 0.58155 0.51747 0.0
C91 C 0.07135 0.45573 0.58466 0.0
C92 C 0.06626 0.70244 0.42939 0.0
C93 C 0.89736 0.57787 0.49777 0.0
H94 H 0.2123 0.42133 0.6135 0.0
H95 H 0.30612 0.48971 0.57663 0.0
H96 H 0.30227 0.67399 0.46496 0.0
H97 H 0.20565 0.73949 0.41649 0.0
H98 H 0.9256 0.72799 0.3947 0.0
H99 H 0.83242 0.65868 0.43127 0.0
H100 H 0.83593 0.49564 0.55711 0.0
H101 H 0.93225 0.42767 0.604 0.0
H102 H 0.95749 0.74623 0.58081 0.0
H103 H 0.17696 0.71967 0.61457 0.0
H104 H 0.9648 0.41261 0.42019 0.0
H105 H 0.18388 0.44185 0.4133 0.0
O106 O 0.96517 0.03355 0.23119 0.0
Cd107 Cd 0.05999 0.00967 0.26401 0.0
Cd108 Cd 0.07301 0.14207 0.25746 0.0
O109 O 0.98285 0.13294 0.2182 0.0
O110 O 0.05367 0.9183 0.27183 0.0
O111 O 0.06791 0.9754 0.32526 0.0
C112 C 0.06114 0.9215 0.31193 0.0
C113 C 0.07628 0.22131 0.30294 0.0
C114 C 0.94617 0.08546 0.21301 0.0
C115 C 0.18221 0.0693 0.22221 0.0
O116 O 0.16412 0.12109 0.23291 0.0
O117 O 0.14704 0.02159 0.23102 0.0
O118 O 0.08033 0.23216 0.2631 0.0
O119 O 0.07 0.16489 0.31732 0.0
O120 O 0.98773 0.13435 0.78063 0.0
Cd121 Cd 0.07699 0.14888 0.74967 0.0
Cd122 Cd 0.07297 0.01626 0.75801 0.0
O123 O 0.98462 0.03302 0.78647 0.0
O124 O 0.07923 0.24018 0.73948 0.0
O125 O 0.07066 0.17954 0.6878 0.0
C126 C 0.07423 0.23445 0.69964 0.0
C127 C 0.06972 0.93994 0.7105 0.0
C128 C 0.95931 0.0845 0.79311 0.0
C129 C 0.19708 0.07815 0.80009 0.0
O130 O 0.16505 0.02856 0.79409 0.0
O131 O 0.17237 0.12951 0.78395 0.0
O132 O 0.07217 0.92651 0.75058 0.0
O133 O 0.06879 0.99726 0.69709 0.0
C134 C 0.34398 0.11333 0.16782 0.0
C135 C 0.3484 0.06762 0.13978 0.0
C136 C 0.29137 0.11255 0.19524 0.0
C137 C 0.24132 0.06578 0.19596 0.0
H138 H 0.38132 0.15027 0.16844 0.0
H139 H 0.28955 0.14929 0.21576 0.0
S140 S 0.22833 0.93651 0.12765 0.0
N141 N 0.29687 0.9753 0.11352 0.0
N142 N 0.19915 0.97289 0.16564 0.0
C143 C 0.24578 0.01924 0.1685 0.0
C144 C 0.29896 0.0204 0.14029 0.0
C145 C 0.0847 0.4012 0.65684 0.0
C146 C 0.07188 0.39854 0.6132 0.0
C147 C 0.08525 0.34784 0.68432 0.0
C148 C 0.07317 0.28973 0.66915 0.0
H149 H 0.09432 0.4449 0.66976 0.0
H150 H 0.09549 0.35236 0.71776 0.0
S151 S 0.0365 0.25953 0.55674 0.0
N152 N 0.04645 0.33453 0.55558 0.0
N153 N 0.04755 0.2337 0.60695 0.0
C154 C 0.06023 0.28682 0.62528 0.0
C155 C 0.0595 0.34138 0.59738 0.0
C156 C 0.76519 0.05831 0.16095 0.0
C157 C 0.76817 0.08706 0.12018 0.0
C158 C 0.82281 0.05846 0.19122 0.0
C159 C 0.88431 0.08911 0.18205 0.0
H160 H 0.71835 0.03481 0.1692 0.0
H161 H 0.81923 0.0346 0.22198 0.0
S162 S 0.91846 0.17041 0.07979 0.0
N163 N 0.83805 0.14513 0.07185 0.0
N164 N 0.945 0.14834 0.12933 0.0
C165 C 0.88736 0.11895 0.14166 0.0
C166 C 0.82958 0.11722 0.11056 0.0
C167 C 0.09199 0.78313 0.67068 0.0
C168 C 0.0678 0.79225 0.62781 0.0
C169 C 0.09199 0.83114 0.69703 0.0
C170 C 0.06901 0.89049 0.6814 0.0
H171 H 0.11022 0.73827 0.68406 0.0
H172 H 0.11075 0.82165 0.72992 0.0
S173 S 0.00243 0.93835 0.57088 0.0
N174 N 0.02108 0.86483 0.57058 0.0
N175 N 0.0221 0.95553 0.61986 0.0
C176 C 0.04551 0.90034 0.63836 0.0
C177 C 0.04454 0.85111 0.61167 0.0
C178 C 0.31204 0.05147 0.90221 0.0
C179 C 0.37593 0.07664 0.89205 0.0
C180 C 0.25507 0.0506 0.8717 0.0
C181 C 0.25946 0.07661 0.83039 0.0
H182 H 0.30609 0.03254 0.93404 0.0
H183 H 0.2066 0.03095 0.88078 0.0
S184 S 0.41529 0.14676 0.78756 0.0
N185 N 0.44133 0.12542 0.83732 0.0
N186 N 0.33247 0.12737 0.78057 0.0
C187 C 0.3228 0.10205 0.81978 0.0
C188 C 0.38154 0.10114 0.85049 0.0
C189 C 0.05227 0.31137 0.39744 0.0
C190 C 0.07649 0.37004 0.38488 0.0
C191 C 0.05351 0.26322 0.37112 0.0
C192 C 0.07787 0.27226 0.33096 0.0
H193 H 0.03272 0.30253 0.42799 0.0
H194 H 0.03424 0.21887 0.38212 0.0
S195 S 0.14621 0.41801 0.28332 0.0
N196 N 0.12531 0.43473 0.32989 0.0
N197 N 0.12715 0.34495 0.2802 0.0
C198 C 0.10213 0.33095 0.31811 0.0
C199 C 0.10162 0.37961 0.34512 0.0
C200 C 0.84057 0.03982 0.8781 0.0
C201 C 0.79249 0.08873 0.87479 0.0
C202 C 0.89284 0.03823 0.85074 0.0
C203 C 0.90012 0.08596 0.81929 0.0
H204 H 0.83873 1.00275 0.90259 0.0
H205 H 0.92913 0.99998 0.85513 0.0
S206 S 0.78514 0.22242 0.79503 0.0
N207 N 0.75293 0.18424 0.83542 0.0
N208 N 0.85324 0.18234 0.78503 0.0
C209 C 0.85223 0.13494 0.8152 0.0
C210 C 0.79806 0.13611 0.84271 0.0
C211 C 0.07388 0.81631 0.41363 0.0
C212 C 0.06475 0.75786 0.39906 0.0
C213 C 0.07251 0.86903 0.38531 0.0
C214 C 0.06211 0.86506 0.34142 0.0
H215 H 0.08201 0.82118 0.44714 0.0
H216 H 0.07976 0.91315 0.39797 0.0
S217 S 0.03639 0.72115 0.28806 0.0
N218 N 0.04573 0.69821 0.33875 0.0
N219 N 0.0428 0.79653 0.28521 0.0
C220 C 0.05313 0.8063 0.32671 0.0
C221 C 0.05458 0.7529 0.35561 0.0
loop_
_geom_bond_atom_site_label_1
_geom_bond_atom_site_label_2
_geom_bond_distance
_geom_bond_site_symmetry_2
_ccdc_geom_bond_type
C0 C1 1.443 . S
C0 N4 1.376 . S
C0 C38 1.389 . S
C1 C0 1.443 . S
C1 C2 1.340 . S
C1 H41 0.951 . S
C2 C1 1.340 . S
C2 C3 1.439 . S
C2 H42 0.950 . S
C3 C2 1.439 . S
C3 N4 1.374 . S
C3 C37 1.395 1_554 S
N4 C0 1.376 . S
N4 C3 1.374 . S
N4 Co5 2.008 . S
Co5 N4 2.008 . S
Co5 N6 1.995 1_554 S
Co5 N11 2.008 1_554 S
Co5 N16 1.995 . S
Co5 N21 2.282 . S
Co5 N27 2.282 1_554 S
N6 Co5 1.995 1_556 S
N6 C7 1.376 . S
N6 C10 1.383 . S
C7 N6 1.376 . S
C7 C8 1.446 . S
C7 C37 1.391 . S
C8 C7 1.446 . S
C8 C9 1.339 . S
C8 H43 0.949 . S
C9 C8 1.339 . S
C9 C10 1.439 . S
C9 H44 0.950 . S
C10 N6 1.383 . S
C10 C9 1.439 . S
C10 C39 1.392 . S
N11 Co5 2.008 1_556 S
N11 C12 1.376 . S
N11 C15 1.374 1_545 S
C12 N11 1.376 . S
C12 C13 1.443 1_545 S
C12 C39 1.389 . S
C13 C12 1.443 1_565 S
C13 C14 1.340 . S
C13 H45 0.951 . S
C14 C13 1.340 . S
C14 C15 1.439 . S
C14 H46 0.950 . S
C15 N11 1.374 1_565 S
C15 C14 1.439 . S
C15 C40 1.395 1_556 S
N16 Co5 1.995 . S
N16 C17 1.376 1_545 S
N16 C20 1.383 . S
C17 N16 1.376 1_565 S
C17 C18 1.446 . S
C17 C40 1.391 . S
C18 C17 1.446 . S
C18 C19 1.339 . S
C18 H47 0.949 . S
C19 C18 1.339 . S
C19 C20 1.439 1_565 S
C19 H48 0.950 . S
C20 N16 1.383 . S
C20 C19 1.439 1_545 S
C20 C38 1.392 . S
N21 Co5 2.282 . S
N21 C24 1.332 . S
N21 C26 1.332 . S
C22 C23 1.386 . S
C22 C25 1.388 . S
C23 C22 1.386 . S
C23 C24 1.382 . S
C23 H49 0.950 1_545 S
C24 N21 1.332 . S
C24 C23 1.382 . S
C24 H35 0.952 . S
C25 C22 1.388 . S
C25 C26 1.382 . S
C25 H50 0.950 . S
C26 N21 1.332 . S
C26 C25 1.382 . S
C26 H36 0.948 . S
N27 Co5 2.282 1_556 S
N27 C31 1.332 . S
N27 C32 1.332 . S
C28 C29 1.388 . S
C28 C32 1.382 . S
C28 H51 0.950 . S
C29 C28 1.388 . S
C29 C30 1.386 . S
C30 C29 1.386 . S
C30 C31 1.382 . S
C30 H52 0.950 . S
C31 N27 1.332 . S
C31 C30 1.382 . S
C31 H33 0.952 . S
C32 N27 1.332 . S
C32 C28 1.382 . S
C32 H34 0.944 1_545 S
H33 C31 0.952 . S
H34 C32 0.944 1_565 S
H35 C24 0.952 . S
H36 C26 0.948 . S
C37 C3 1.395 1_556 S
C37 C7 1.391 . S
C38 C0 1.389 . S
C38 C20 1.392 . S
C39 C10 1.392 . S
C39 C12 1.389 . S
C40 C15 1.395 1_554 S
C40 C17 1.391 . S
H41 C1 0.951 . S
H42 C2 0.950 . S
H43 C8 0.949 . S
H44 C9 0.950 . S
H45 C13 0.951 . S
H46 C14 0.950 . S
H47 C18 0.949 . S
H48 C19 0.950 . S
H49 C23 0.950 1_565 S
H50 C25 0.950 . S
H51 C28 0.950 . S
H52 C30 0.950 . S
C53 C54 1.443 . S
C53 N57 1.376 . S
C53 C91 1.389 . S
C54 C53 1.443 . S
C54 C55 1.340 . S
C54 H94 0.951 . S
C55 C54 1.340 . S
C55 C56 1.439 . S
C55 H95 0.950 . S
C56 C55 1.439 . S
C56 N57 1.374 . S
C56 C90 1.395 . S
N57 C53 1.376 . S
N57 C56 1.374 . S
N57 Co58 2.008 . S
Co58 N57 2.008 . S
Co58 N59 1.995 . S
Co58 N64 2.008 . S
Co58 N69 1.995 . S
Co58 N74 2.282 . S
Co58 N80 2.282 . S
N59 Co58 1.995 . S
N59 C60 1.376 . S
N59 C63 1.383 . S
C60 N59 1.376 . S
C60 C61 1.446 . S
C60 C90 1.391 . S
C61 C60 1.446 . S
C61 C62 1.339 . S
C61 H96 0.949 . S
C62 C61 1.339 . S
C62 C63 1.439 . S
C62 H97 0.950 . S
C63 N59 1.383 . S
C63 C62 1.439 . S
C63 C92 1.392 . S
N64 Co58 2.008 . S
N64 C65 1.376 . S
N64 C68 1.374 1_455 S
C65 N64 1.376 . S
C65 C66 1.443 1_455 S
C65 C92 1.389 . S
C66 C65 1.443 1_655 S
C66 C67 1.340 . S
C66 H98 0.951 . S
C67 C66 1.340 . S
C67 C68 1.439 . S
C67 H99 0.950 . S
C68 N64 1.374 1_655 S
C68 C67 1.439 . S
C68 C93 1.395 . S
N69 Co58 1.995 . S
N69 C70 1.376 1_455 S
N69 C73 1.383 . S
C70 N69 1.376 1_655 S
C70 C71 1.446 . S
C70 C93 1.391 . S
C71 C70 1.446 . S
C71 C72 1.339 . S
C71 H100 0.949 . S
C72 C71 1.339 . S
C72 C73 1.439 1_655 S
C72 H101 0.950 . S
C73 N69 1.383 . S
C73 C72 1.439 1_455 S
C73 C91 1.392 . S
N74 Co58 2.282 . S
N74 C77 1.332 . S
N74 C79 1.332 . S
C75 C76 1.386 . S
C75 C78 1.388 . S
C76 C75 1.386 . S
C76 C77 1.382 . S
C76 H102 0.950 1_455 S
C77 N74 1.332 . S
C77 C76 1.382 . S
C77 H88 0.952 1_455 S
C78 C75 1.388 . S
C78 C79 1.382 . S
C78 H103 0.950 . S
C79 N74 1.332 . S
C79 C78 1.382 . S
C79 H89 0.948 . S
N80 Co58 2.282 . S
N80 C84 1.332 . S
N80 C85 1.332 . S
C81 C82 1.388 . S
C81 C85 1.382 . S
C81 H104 0.950 1_455 S
C82 C81 1.388 . S
C82 C83 1.386 . S
C83 C82 1.386 . S
C83 C84 1.382 . S
C83 H105 0.950 . S
C84 N80 1.332 . S
C84 C83 1.382 . S
C84 H86 0.952 . S
C85 N80 1.332 . S
C85 C81 1.382 . S
C85 H87 0.948 1_455 S
H86 C84 0.952 . S
H87 C85 0.948 1_655 S
H88 C77 0.952 1_655 S
H89 C79 0.948 . S
C90 C56 1.395 . S
C90 C60 1.391 . S
C91 C53 1.389 . S
C91 C73 1.392 . S
C92 C63 1.392 . S
C92 C65 1.389 . S
C93 C68 1.395 . S
C93 C70 1.391 . S
H94 C54 0.951 . S
H95 C55 0.950 . S
H96 C61 0.949 . S
H97 C62 0.950 . S
H98 C66 0.951 . S
H99 C67 0.950 . S
H100 C71 0.949 . S
H101 C72 0.950 . S
H102 C76 0.950 1_655 S
H103 C78 0.950 . S
H104 C81 0.950 1_655 S
H105 C83 0.950 . S
O106 Cd107 2.223 . S
O106 C114 1.315 1_465 S
Cd107 O106 2.223 . S
Cd107 O110 2.297 . S
Cd107 O111 2.439 . S
Cd107 O117 2.240 1_565 S
Cd108 O109 2.240 1_455 S
Cd108 O116 2.223 . S
Cd108 O118 2.297 . S
Cd108 O119 2.439 . S
O109 Cd108 2.240 1_655 S
O109 C114 1.279 . S
O110 Cd107 2.297 . S
O110 C112 1.247 . S
O111 Cd107 2.439 . S
O111 C112 1.208 . S
C112 O110 1.247 . S
C112 O111 1.208 . S
C113 O118 1.247 . S
C113 O119 1.208 . S
C114 O106 1.315 1_645 S
C114 O109 1.279 . S
C115 O116 1.315 . S
C115 O117 1.279 . S
O116 Cd108 2.223 . S
O116 C115 1.315 . S
O117 Cd107 2.240 1_545 S
O117 C115 1.279 . S
O118 Cd108 2.297 . S
O118 C113 1.247 . S
O119 Cd108 2.439 . S
O119 C113 1.208 . S
O120 Cd121 2.223 . S
O120 C128 1.315 . S
Cd121 O120 2.223 . S
Cd121 O124 2.297 . S
Cd121 O125 2.439 . S
Cd121 O131 2.240 . S
Cd122 O123 2.229 1_565 S
Cd122 O130 2.222 1_565 S
Cd122 O132 2.307 . S
Cd122 O133 2.439 1_565 S
O123 Cd122 2.229 1_545 S
O123 C128 1.279 . S
O124 Cd121 2.297 . S
O124 C126 1.247 . S
O125 Cd121 2.439 . S
O125 C126 1.208 . S
C126 O124 1.247 . S
C126 O125 1.208 . S
C127 O132 1.247 . S
C127 O133 1.208 1_565 S
C128 O120 1.315 . S
C128 O123 1.279 . S
C129 O130 1.315 . S
C129 O131 1.279 . S
O130 Cd122 2.222 1_545 S
O130 C129 1.315 . S
O131 Cd121 2.240 . S
O131 C129 1.279 . S
O132 Cd122 2.307 . S
O132 C127 1.247 . S
O133 Cd122 2.439 1_545 S
O133 C127 1.208 1_545 S
C134 C135 1.369 . S
C134 C136 1.419 . S
C134 H138 0.930 . S
C135 C134 1.369 . S
C135 C144 1.429 . S
C136 C134 1.419 . S
C136 C137 1.363 . S
C136 H139 0.929 . S
C137 C136 1.363 . S
C137 C143 1.428 . S
H138 C134 0.930 . S
H139 C136 0.929 . S
S140 N141 1.613 . S
S140 N142 1.610 . S
N141 S140 1.613 . S
N141 C144 1.350 . S
N142 S140 1.610 . S
N142 C143 1.351 . S
C143 C137 1.428 . S
C143 N142 1.351 . S
C143 C144 1.434 . S
C144 C135 1.429 . S
C144 N141 1.350 . S
C144 C143 1.434 . S
C145 C146 1.369 . S
C145 C147 1.419 . S
C145 H149 0.930 . S
C146 C145 1.369 . S
C146 C155 1.429 . S
C147 C145 1.419 . S
C147 C148 1.363 . S
C147 H150 0.929 . S
C148 C147 1.363 . S
C148 C154 1.428 1_455 S
H149 C145 0.930 . S
H150 C147 0.929 . S
S151 N152 1.613 . S
S151 N153 1.610 . S
N152 S151 1.613 . S
N152 C155 1.350 1_655 S
N153 S151 1.610 . S
N153 C154 1.351 . S
C154 C148 1.428 1_655 S
C154 N153 1.351 . S
C154 C155 1.434 1_655 S
C155 C146 1.429 . S
C155 N152 1.350 1_455 S
C155 C154 1.434 1_455 S
C156 C157 1.369 . S
C156 C158 1.419 . S
C156 H160 0.930 . S
C157 C156 1.369 . S
C157 C166 1.429 . S
C158 C156 1.419 . S
C158 C159 1.363 . S
C158 H161 0.929 1_545 S
C159 C158 1.363 . S
C159 C165 1.428 . S
H160 C156 0.930 . S
H161 C158 0.929 1_565 S
S162 N163 1.613 . S
S162 N164 1.610 . S
N163 S162 1.613 . S
N163 C166 1.350 . S
N164 S162 1.610 . S
N164 C165 1.351 . S
C165 C159 1.428 . S
C165 N164 1.351 . S
C165 C166 1.434 . S
C166 C157 1.429 . S
C166 N163 1.350 . S
C166 C165 1.434 . S
C167 C168 1.369 . S
C167 C169 1.419 . S
C167 H171 0.930 . S
C168 C167 1.369 . S
C168 C177 1.429 . S
C169 C167 1.419 . S
C169 C170 1.363 . S
C169 H172 0.929 . S
C170 C169 1.363 . S
C170 C176 1.428 . S
H171 C167 0.930 . S
H172 C169 0.929 . S
S173 N174 1.613 1_655 S
S173 N175 1.610 1_655 S
N174 S173 1.613 1_455 S
N174 C177 1.350 . S
N175 S173 1.610 1_455 S
N175 C176 1.351 . S
C176 C170 1.428 . S
C176 N175 1.351 . S
C176 C177 1.434 . S
C177 C168 1.429 . S
C177 N174 1.350 . S
C177 C176 1.434 . S
C178 C179 1.369 . S
C178 C180 1.419 . S
C178 H182 0.930 . S
C179 C178 1.369 . S
C179 C188 1.429 . S
C180 C178 1.419 . S
C180 C181 1.363 . S
C180 H183 0.929 . S
C181 C180 1.363 . S
C181 C187 1.428 . S
H182 C178 0.930 . S
H183 C180 0.929 . S
S184 N185 1.613 . S
S184 N186 1.610 . S
N185 S184 1.613 . S
N185 C188 1.350 . S
N186 S184 1.610 . S
N186 C187 1.351 . S
C187 C181 1.428 . S
C187 N186 1.351 . S
C187 C188 1.434 . S
C188 C179 1.429 . S
C188 N185 1.350 . S
C188 C187 1.434 . S
C189 C190 1.369 . S
C189 C191 1.419 . S
C189 H193 0.930 . S
C190 C189 1.369 . S
C190 C199 1.429 . S
C191 C189 1.419 . S
C191 C192 1.363 . S
C191 H194 0.929 . S
C192 C191 1.363 . S
C192 C198 1.428 . S
H193 C189 0.930 . S
H194 C191 0.929 . S
S195 N196 1.613 . S
S195 N197 1.610 . S
N196 S195 1.613 . S
N196 C199 1.350 . S
N197 S195 1.610 . S
N197 C198 1.351 . S
C198 C192 1.428 . S
C198 N197 1.351 . S
C198 C199 1.434 . S
C199 C190 1.429 . S
C199 N196 1.350 . S
C199 C198 1.434 . S
C200 C201 1.369 . S
C200 C202 1.419 . S
C200 H204 0.930 . S
C201 C200 1.369 . S
C201 C210 1.429 . S
C202 C200 1.419 . S
C202 C203 1.363 . S
C202 H205 0.929 1_655 S
C203 C202 1.363 . S
C203 C209 1.428 . S
H204 C200 0.930 . S
H205 C202 0.929 1_455 S
S206 N207 1.613 . S
S206 N208 1.610 . S
N207 S206 1.613 . S
N207 C210 1.350 . S
N208 S206 1.610 . S
N208 C209 1.351 . S
C209 C203 1.428 . S
C209 N208 1.351 . S
C209 C210 1.434 . S
C210 C201 1.429 . S
C210 N207 1.350 . S
C210 C209 1.434 . S
C211 C212 1.369 . S
C211 C213 1.419 . S
C211 H215 0.930 . S
C212 C211 1.369 . S
C212 C221 1.436 . S
C213 C211 1.419 . S
C213 C214 1.363 . S
C213 H216 0.929 . S
C214 C213 1.363 . S
C214 C220 1.428 1_455 S
H215 C211 0.930 . S
H216 C213 0.929 . S
S217 N218 1.613 . S
S217 N219 1.610 . S
N218 S217 1.613 . S
N218 C221 1.344 1_655 S
N219 S217 1.610 . S
N219 C220 1.351 . S
C220 C214 1.428 1_655 S
C220 N219 1.351 . S
C220 C221 1.432 1_655 S
C221 C212 1.436 . S
C221 N218 1.344 1_455 S
C221 C220 1.432 1_455 S
C137 C115 1.590 . S
C135 C22 1.588 . S
C148 C126 1.541 . S
C146 C91 1.636 . S
C159 C114 1.642 . S
C157 C38 1.636 . S
C170 C127 1.515 . S
C168 C75 1.581 . S
C181 C129 1.640 . S
C179 C39 1.632 . S
C192 C113 1.508 . S
C190 C82 1.586 . S
C203 C128 1.585 1_655 S
C201 C29 1.583 . S
C212 C92 1.627 . S
C214 C112 1.545 . S
