# Generated by pormake.
# Topology pyr, (3,6)-cn, num edge types: 1
# Building blocks:
#     Node 0, Type 0, BuildingBlock: OLANEW_clean_sbu_2, # of connection points: 3
#     Node 1, Type 0, BuildingBlock: OLANEW_clean_sbu_2, # of connection points: 3
#     Node 2, Type 0, BuildingBlock: OLANEW_clean_sbu_2, # of connection points: 3
#     Node 3, Type 0, BuildingBlock: OLANEW_clean_sbu_2, # of connection points: 3
#     Node 4, Type 0, BuildingBlock: OLANEW_clean_sbu_2, # of connection points: 3
#     Node 5, Type 0, BuildingBlock: OLANEW_clean_sbu_2, # of connection points: 3
#     Node 6, Type 0, BuildingBlock: OLANEW_clean_sbu_2, # of connection points: 3
#     Node 7, Type 0, BuildingBlock: OLANEW_clean_sbu_2, # of connection points: 3
#     Node 8, Type 1, BuildingBlock: MIDCAF_clean_sbu_0, # of connection points: 6
#     Node 9, Type 1, BuildingBlock: MIDCAF_clean_sbu_0, # of connection points: 6
#     Node 10, Type 1, BuildingBlock: MIDCAF_clean_sbu_0, # of connection points: 6
#     Node 11, Type 1, BuildingBlock: MIDCAF_clean_sbu_0, # of connection points: 6
#     Edge 12, Type (0, 1), None
#     Edge 13, Type (0, 1), None
#     Edge 14, Type (0, 1), None
#     Edge 15, Type (0, 1), None
#     Edge 16, Type (0, 1), None
#     Edge 17, Type (0, 1), None
#     Edge 18, Type (0, 1), None
#     Edge 19, Type (0, 1), None
#     Edge 20, Type (0, 1), None
#     Edge 21, Type (0, 1), None
#     Edge 22, Type (0, 1), None
#     Edge 23, Type (0, 1), None
#     Edge 24, Type (0, 1), None
#     Edge 25, Type (0, 1), None
#     Edge 26, Type (0, 1), None
#     Edge 27, Type (0, 1), None
#     Edge 28, Type (0, 1), None
#     Edge 29, Type (0, 1), None
#     Edge 30, Type (0, 1), None
#     Edge 31, Type (0, 1), None
#     Edge 32, Type (0, 1), None
#     Edge 33, Type (0, 1), None
#     Edge 34, Type (0, 1), None
#     Edge 35, Type (0, 1), None
# Relax obj value: 0.094
# Max RMSD: 0.152
# Mean RMSD: 0.113
data_MOF--net-pry--node1-OLANEW_clean_sbu_2--node2-MIDCAF_clean_sbu_0--edge1-none
_symmetry_space_group_name_H-M    P1
_symmetry_Int_Tables_number       1
_symmetry_cell_setting            triclinic
loop_
_symmetry_equiv_pos_as_xyz
'x, y, z'
_cell_length_a     17.052215
_cell_length_b     18.297918
_cell_length_c     17.374894
_cell_angle_alpha  98.08377
_cell_angle_beta   92.286197
_cell_angle_gamma 97.075604
loop_
_atom_site_label
_atom_site_type_symbol
_atom_site_fract_x
_atom_site_fract_y
_atom_site_fract_z
_atom_type_partial_charge
O0 O 0.32258 0.18622 0.21138 0.0
Cd1 Cd 0.26492 0.29065 0.28279 0.0
O2 O 0.39396 0.16123 0.31055 0.0
Cd3 Cd 0.32152 0.22264 0.39253 0.0
O4 O 0.23006 0.18182 0.46717 0.0
C5 C 0.25603 0.1314 0.50029 0.0
O6 O 0.33013 0.12043 0.49192 0.0
C7 C 0.37434 0.15028 0.23813 0.0
C8 C 0.16745 0.35902 0.18867 0.0
O9 O 0.13875 0.30792 0.22687 0.0
O10 O 0.24255 0.37796 0.19388 0.0
O11 O 0.4333 0.74158 0.04455 0.0
Cd12 Cd 0.37887 0.61681 0.98127 0.0
O13 O 0.37251 0.76396 0.93984 0.0
Cd14 Cd 0.32429 0.82043 0.84944 0.0
O15 O 0.25141 0.83019 0.74556 0.0
C16 C 0.21753 0.88794 0.74379 0.0
O17 O 0.23263 0.94343 0.80128 0.0
C18 C 0.41375 0.78853 0.00285 0.0
C19 C 0.46076 0.58127 0.84902 0.0
O20 O 0.39528 0.60797 0.84247 0.0
O21 O 0.48503 0.56977 0.91647 0.0
O22 O 0.9441 0.35395 0.78022 0.0
Cd23 Cd 0.86243 0.30441 0.66012 0.0
O24 O 0.8511 0.29524 0.83964 0.0
Cd25 Cd 0.78086 0.25422 0.93165 0.0
O26 O 0.69518 0.18227 0.9883 0.0
C27 C 0.62934 0.15339 0.95325 0.0
O28 O 0.61084 0.16995 0.88424 0.0
C29 C 0.91556 0.33924 0.84341 0.0
C30 C 0.75064 0.40165 0.64641 0.0
O31 O 0.72984 0.33953 0.67054 0.0
O32 O 0.82185 0.41577 0.62679 0.0
O33 O 0.98234 0.86491 0.30081 0.0
Cd34 Cd 0.89905 0.80277 0.18653 0.0
O35 O 0.88971 0.82157 0.37146 0.0
Cd36 Cd 0.84644 0.792 0.47887 0.0
O37 O 0.75759 0.72464 0.5307 0.0
C38 C 0.72449 0.74583 0.5922 0.0
O39 O 0.74798 0.81173 0.63238 0.0
C40 C 0.95657 0.85876 0.36743 0.0
C41 C 0.94338 0.66364 0.13271 0.0
O42 O 0.88906 0.66951 0.18124 0.0
O43 O 0.97613 0.7229 0.1097 0.0
O44 O 0.08994 0.90517 0.84713 0.0
Cd45 Cd 0.14572 0.87663 0.96943 0.0
O46 O 0.02536 0.98104 0.91986 0.0
Cd47 Cd 0.94588 0.06307 0.95319 0.0
O48 O 0.86354 0.08358 0.04416 0.0
C49 C 0.79 0.06302 0.02943 0.0
O50 O 0.76381 0.03544 0.95785 0.0
C51 C 0.0453 0.95575 0.85261 0.0
C52 C 0.14504 0.72581 0.97469 0.0
O53 O 0.0881 0.75973 1.00087 0.0
O54 O 0.20173 0.7628 0.94485 0.0
O55 O 0.57611 0.94883 0.36447 0.0
Cd56 Cd 0.63749 0.87172 0.44725 0.0
O57 O 0.60681 0.04736 0.452 0.0
Cd58 Cd 0.62758 0.16584 0.494 0.0
O59 O 0.60632 0.27876 0.53508 0.0
C60 C 0.53594 0.29092 0.52102 0.0
O61 O 0.4843 0.23642 0.48504 0.0
C62 C 0.57987 0.01881 0.38372 0.0
C63 C 0.78223 0.94113 0.52097 0.0
O64 O 0.78079 0.9051 0.45218 0.0
O65 O 0.71614 0.94621 0.55266 0.0
O66 O 0.6869 0.78254 0.22497 0.0
Cd67 Cd 0.7129 0.66368 0.26203 0.0
O68 O 0.56166 0.74097 0.20246 0.0
Cd69 Cd 0.43472 0.69919 0.18716 0.0
O70 O 0.33188 0.61387 0.15071 0.0
C71 C 0.34072 0.54632 0.12729 0.0
O72 O 0.41223 0.52681 0.13022 0.0
C73 C 0.6179 0.79395 0.20345 0.0
C74 C 0.61842 0.61584 0.37767 0.0
O75 O 0.68496 0.65635 0.39582 0.0
O76 O 0.59601 0.59917 0.30537 0.0
O77 O 0.10346 0.57051 0.77413 0.0
Cd78 Cd 0.17048 0.65843 0.69781 0.0
O79 O 0.15752 0.48861 0.69721 0.0
Cd80 Cd 0.20284 0.38369 0.66244 0.0
O81 O 0.16487 0.2656 0.62961 0.0
C82 C 0.09034 0.25295 0.6326 0.0
O83 O 0.05045 0.30938 0.65051 0.0
C84 C 0.12099 0.50478 0.75846 0.0
C85 C 0.30315 0.59871 0.63992 0.0
O86 O 0.3085 0.63778 0.70752 0.0
O87 O 0.23696 0.59013 0.60005 0.0
Zn88 Zn 0.94571 0.06832 0.6887 0.0
Zn89 Zn 0.14648 0.92072 0.5306 0.0
Zn90 Zn 0.04809 0.0008 0.5988 0.0
C91 C 0.20198 0.07217 0.52606 0.0
C92 C 1.0078 0.88767 0.43752 0.0
O93 O 0.05393 0.97065 0.71827 0.0
O94 O 0.96987 0.03115 0.78823 0.0
C95 C 0.05142 0.1776 0.63386 0.0
O96 O 0.13477 0.08299 0.55394 0.0
O97 O 0.22248 0.00775 0.51619 0.0
O98 O 0.07888 0.87519 0.43712 0.0
O99 O 0.98324 0.9292 0.49561 0.0
O100 O 0.99129 0.16993 0.67352 0.0
O101 O 0.08107 0.12059 0.60104 0.0
O102 O 0.92539 0.96101 0.54402 0.0
O103 O 0.8498 0.0208 0.62558 0.0
C104 C 0.85638 0.97623 0.56454 0.0
O105 O 0.12166 0.9461 0.67796 0.0
O106 O 0.18441 0.86257 0.60895 0.0
C107 C 1.0205 0.98618 0.78293 0.0
C108 C 0.17043 0.89709 0.67401 0.0
Zn109 Zn 0.43509 0.02493 0.02707 0.0
Zn110 Zn 0.67491 0.03371 0.22141 0.0
Zn111 Zn 0.54793 0.00253 0.13297 0.0
C112 C 0.73728 0.05762 0.09361 0.0
C113 C 0.60767 0.87044 0.19058 0.0
O114 O 0.47406 0.0707 0.20403 0.0
O115 O 0.38364 0.08381 0.11368 0.0
C116 C 0.57349 0.10282 0.98998 0.0
O117 O 0.66198 0.03867 0.079 0.0
O118 O 0.76613 0.06662 0.16269 0.0
O119 O 0.65877 0.92188 0.22576 0.0
O120 O 0.55452 0.88594 0.14311 0.0
O121 O 0.50306 0.08614 0.96192 0.0
O122 O 0.59659 0.075 0.04982 0.0
O123 O 0.49172 0.89142 0.08228 0.0
O124 O 0.40475 0.91452 0.99335 0.0
C125 C 0.43784 0.86858 0.02725 0.0
O126 O 0.53295 0.03373 0.25948 0.0
O127 O 0.64193 0.10155 0.3111 0.0
C128 C 0.41209 0.09811 0.18342 0.0
C129 C 0.57663 0.06432 0.32056 0.0
Zn130 Zn 0.64782 0.58925 0.71294 0.0
Zn131 Zn 0.45209 0.48855 0.49325 0.0
Zn132 Zn 0.55501 0.53925 0.6082 0.0
C133 C 0.5156 0.36679 0.53278 0.0
C134 C 0.57186 0.58296 0.43664 0.0
O135 O 0.48843 0.57242 0.71268 0.0
O136 O 0.58355 0.56487 0.79989 0.0
C137 C 0.69972 0.46075 0.6525 0.0
O138 O 0.5613 0.41952 0.57554 0.0
O139 O 0.45577 0.38071 0.49508 0.0
O140 O 0.51238 0.53568 0.41328 0.0
O141 O 0.59438 0.59663 0.50954 0.0
O142 O 0.73059 0.52541 0.68137 0.0
O143 O 0.62575 0.44896 0.62981 0.0
O144 O 0.63764 0.6323 0.57996 0.0
O145 O 0.67005 0.69506 0.69748 0.0
C146 C 0.67199 0.69072 0.62458 0.0
O147 O 0.43706 0.56799 0.64559 0.0
O148 O 0.36214 0.53548 0.53604 0.0
C149 C 0.51209 0.57064 0.7838 0.0
C150 C 0.3707 0.56581 0.6062 0.0
Zn151 Zn 0.21212 0.49909 0.93853 0.0
Zn152 Zn 0.96628 0.43131 0.08231 0.0
Zn153 Zn 0.08831 0.49744 0.01148 0.0
C154 C 0.11482 0.39484 0.14071 0.0
C155 C 0.9534 0.3775 0.91846 0.0
O156 O 0.09216 0.61192 0.01488 0.0
O157 O 0.19702 0.61183 0.94346 0.0
C158 C 0.28126 0.50369 0.06947 0.0
O159 O 0.14331 0.43876 0.0945 0.0
O160 O 0.04073 0.3818 0.14606 0.0
O161 O 0.91674 0.37346 0.97998 0.0
O162 O 1.01944 0.42 0.92026 0.0
O163 O 0.30403 0.48243 0.00288 0.0
O164 O 0.20685 0.50684 0.07858 0.0
O165 O 0.08083 0.47805 0.8805 0.0
O166 O 0.18805 0.43666 0.83521 0.0
C167 C 0.12307 0.4603 0.8224 0.0
O168 O 0.02686 0.58791 0.06065 0.0
O169 O 0.93299 0.53229 0.12472 0.0
C170 C 0.14498 0.64632 0.9781 0.0
C171 C 0.96844 0.59108 0.10465 0.0
loop_
_geom_bond_atom_site_label_1
_geom_bond_atom_site_label_2
_geom_bond_distance
_geom_bond_site_symmetry_2
_ccdc_geom_bond_type
O0 Cd1 2.300 . S
O0 C7 1.275 . S
Cd1 O0 2.300 . S
Cd1 O9 2.381 . S
Cd1 O10 2.378 . S
O2 Cd3 2.385 1_545 S
O2 C7 1.255 . S
Cd3 O2 2.385 1_565 S
Cd3 O4 2.317 1_565 S
O4 Cd3 2.317 1_545 S
O4 C5 1.232 . S
C5 O4 1.232 . S
C5 O6 1.218 1_545 S
O6 C5 1.218 1_565 S
C7 O0 1.275 . S
C7 O2 1.255 . S
C8 O9 1.258 . S
C8 O10 1.256 . S
O9 Cd1 2.381 . S
O9 C8 1.258 . S
O10 Cd1 2.378 . S
O10 C8 1.256 . S
O11 Cd12 2.300 . S
O11 C18 1.275 . S
Cd12 O11 2.300 . S
Cd12 O20 2.381 . S
Cd12 O21 2.378 . S
O13 Cd14 2.385 . S
O13 C18 1.255 . S
Cd14 O13 2.385 . S
Cd14 O15 2.317 . S
O15 Cd14 2.317 . S
O15 C16 1.232 . S
C16 O15 1.232 . S
C16 O17 1.218 . S
O17 C16 1.218 . S
C18 O11 1.275 . S
C18 O13 1.255 . S
C19 O20 1.258 . S
C19 O21 1.256 . S
O20 Cd12 2.381 . S
O20 C19 1.258 . S
O21 Cd12 2.378 . S
O21 C19 1.256 . S
O22 Cd23 2.300 . S
O22 C29 1.275 . S
Cd23 O22 2.300 . S
Cd23 O31 2.381 . S
Cd23 O32 2.378 . S
O24 Cd25 2.385 . S
O24 C29 1.255 . S
Cd25 O24 2.385 . S
Cd25 O26 2.317 . S
O26 Cd25 2.317 . S
O26 C27 1.232 1_556 S
C27 O26 1.232 1_554 S
C27 O28 1.218 . S
O28 C27 1.218 . S
C29 O22 1.275 . S
C29 O24 1.255 . S
C30 O31 1.258 . S
C30 O32 1.256 . S
O31 Cd23 2.381 . S
O31 C30 1.258 . S
O32 Cd23 2.378 . S
O32 C30 1.256 . S
O33 Cd34 2.300 . S
O33 C40 1.275 . S
Cd34 O33 2.300 . S
Cd34 O42 2.381 1_655 S
Cd34 O43 2.378 . S
O35 Cd36 2.385 . S
O35 C40 1.255 . S
Cd36 O35 2.385 . S
Cd36 O37 2.317 . S
O37 Cd36 2.317 . S
O37 C38 1.232 . S
C38 O37 1.232 . S
C38 O39 1.218 . S
O39 C38 1.218 . S
C40 O33 1.275 . S
C40 O35 1.255 . S
C41 O42 1.258 . S
C41 O43 1.256 1_455 S
O42 Cd34 2.381 1_455 S
O42 C41 1.258 . S
O43 Cd34 2.378 . S
O43 C41 1.256 1_655 S
O44 Cd45 2.300 1_556 S
O44 C51 1.275 1_465 S
Cd45 O44 2.300 1_554 S
Cd45 O53 2.381 1_554 S
Cd45 O54 2.378 . S
O46 Cd47 2.385 1_556 S
O46 C51 1.255 . S
Cd47 O46 2.385 1_554 S
Cd47 O48 2.317 . S
O48 Cd47 2.317 . S
O48 C49 1.232 . S
C49 O48 1.232 . S
C49 O50 1.218 . S
O50 C49 1.218 . S
C51 O44 1.275 1_645 S
C51 O46 1.255 . S
C52 O53 1.258 1_554 S
C52 O54 1.256 . S
O53 Cd45 2.381 1_556 S
O53 C52 1.258 1_556 S
O54 Cd45 2.378 . S
O54 C52 1.256 . S
O55 Cd56 2.300 . S
O55 C62 1.275 . S
Cd56 O55 2.300 . S
Cd56 O64 2.381 1_545 S
Cd56 O65 2.378 . S
O57 Cd58 2.385 . S
O57 C62 1.255 . S
Cd58 O57 2.385 . S
Cd58 O59 2.317 . S
O59 Cd58 2.317 . S
O59 C60 1.232 . S
C60 O59 1.232 . S
C60 O61 1.218 . S
O61 C60 1.218 . S
C62 O55 1.275 . S
C62 O57 1.255 . S
C63 O64 1.258 1_545 S
C63 O65 1.256 . S
O64 Cd56 2.381 1_565 S
O64 C63 1.258 1_565 S
O65 Cd56 2.378 . S
O65 C63 1.256 . S
O66 Cd67 2.300 . S
O66 C73 1.275 . S
Cd67 O66 2.300 . S
Cd67 O75 2.381 . S
Cd67 O76 2.378 . S
O68 Cd69 2.385 . S
O68 C73 1.255 . S
Cd69 O68 2.385 . S
Cd69 O70 2.317 . S
O70 Cd69 2.317 . S
O70 C71 1.232 . S
C71 O70 1.232 . S
C71 O72 1.218 . S
O72 C71 1.218 . S
C73 O66 1.275 . S
C73 O68 1.255 . S
C74 O75 1.258 . S
C74 O76 1.256 . S
O75 Cd67 2.381 . S
O75 C74 1.258 . S
O76 Cd67 2.378 . S
O76 C74 1.256 . S
O77 Cd78 2.300 . S
O77 C84 1.275 . S
Cd78 O77 2.300 . S
Cd78 O86 2.381 . S
Cd78 O87 2.378 . S
O79 Cd80 2.385 . S
O79 C84 1.255 . S
Cd80 O79 2.385 . S
Cd80 O81 2.317 . S
O81 Cd80 2.317 . S
O81 C82 1.232 . S
C82 O81 1.232 . S
C82 O83 1.218 1_455 S
O83 C82 1.218 1_655 S
C84 O77 1.275 . S
C84 O79 1.255 . S
C85 O86 1.258 . S
C85 O87 1.256 . S
O86 Cd78 2.381 . S
O86 C85 1.258 . S
O87 Cd78 2.378 . S
O87 C85 1.256 . S
Zn88 O94 1.920 . S
Zn88 O100 1.898 . S
Zn88 O103 1.905 . S
Zn89 O97 1.905 . S
Zn89 O98 1.898 . S
Zn89 O106 1.920 . S
Zn90 O93 2.080 1_445 S
Zn90 O96 2.114 . S
Zn90 O99 2.120 1_445 S
Zn90 O101 2.120 . S
Zn90 O102 2.114 1_455 S
Zn90 O105 2.080 1_545 S
C91 O96 1.166 . S
C91 O97 1.182 1_545 S
C92 O98 1.167 1_655 S
C92 O99 1.299 . S
O93 Zn90 2.080 1_665 S
O93 C107 1.305 1_565 S
O94 Zn88 1.920 . S
O94 C107 1.234 . S
C95 O100 1.167 1_455 S
C95 O101 1.299 . S
O96 Zn90 2.114 . S
O96 C91 1.166 . S
O97 Zn89 1.905 . S
O97 C91 1.182 1_565 S
O98 Zn89 1.898 . S
O98 C92 1.167 1_455 S
O99 Zn90 2.120 1_665 S
O99 C92 1.299 . S
O100 Zn88 1.898 . S
O100 C95 1.167 1_655 S
O101 Zn90 2.120 . S
O101 C95 1.299 . S
O102 Zn90 2.114 1_655 S
O102 C104 1.166 . S
O103 Zn88 1.905 . S
O103 C104 1.182 . S
C104 O102 1.166 . S
C104 O103 1.182 . S
O105 Zn90 2.080 1_565 S
O105 C108 1.305 . S
O106 Zn89 1.920 . S
O106 C108 1.234 . S
C107 O93 1.305 1_545 S
C107 O94 1.234 . S
C108 O105 1.305 . S
C108 O106 1.234 . S
Zn109 O115 1.920 1_556 S
Zn109 O121 1.898 . S
Zn109 O124 1.905 . S
Zn110 O118 1.905 . S
Zn110 O119 1.898 . S
Zn110 O127 1.920 . S
Zn111 O114 2.080 . S
Zn111 O117 2.114 1_545 S
Zn111 O120 2.120 1_545 S
Zn111 O122 2.120 . S
Zn111 O123 2.114 1_544 S
Zn111 O126 2.080 . S
C112 O117 1.166 . S
C112 O118 1.182 . S
C113 O119 1.167 . S
C113 O120 1.299 . S
O114 Zn111 2.080 . S
O114 C128 1.305 . S
O115 Zn109 1.920 1_554 S
O115 C128 1.234 . S
C116 O121 1.167 1_554 S
C116 O122 1.299 . S
O117 Zn111 2.114 1_565 S
O117 C112 1.166 . S
O118 Zn110 1.905 . S
O118 C112 1.182 . S
O119 Zn110 1.898 . S
O119 C113 1.167 . S
O120 Zn111 2.120 1_565 S
O120 C113 1.299 . S
O121 Zn109 1.898 . S
O121 C116 1.167 1_556 S
O122 Zn111 2.120 . S
O122 C116 1.299 . S
O123 Zn111 2.114 1_566 S
O123 C125 1.166 . S
O124 Zn109 1.905 . S
O124 C125 1.182 1_545 S
C125 O123 1.166 . S
C125 O124 1.182 1_565 S
O126 Zn111 2.080 . S
O126 C129 1.305 . S
O127 Zn110 1.920 . S
O127 C129 1.234 1_565 S
C128 O114 1.305 . S
C128 O115 1.234 . S
C129 O126 1.305 . S
C129 O127 1.234 1_545 S
Zn130 O136 1.920 . S
Zn130 O142 1.898 . S
Zn130 O145 1.905 . S
Zn131 O139 1.905 . S
Zn131 O140 1.898 . S
Zn131 O148 1.920 . S
Zn132 O135 2.080 . S
Zn132 O138 2.114 . S
Zn132 O141 2.120 . S
Zn132 O143 2.120 . S
Zn132 O144 2.114 . S
Zn132 O147 2.080 . S
C133 O138 1.166 . S
C133 O139 1.182 . S
C134 O140 1.167 . S
C134 O141 1.299 . S
O135 Zn132 2.080 . S
O135 C149 1.305 . S
O136 Zn130 1.920 . S
O136 C149 1.234 . S
C137 O142 1.167 . S
C137 O143 1.299 . S
O138 Zn132 2.114 . S
O138 C133 1.166 . S
O139 Zn131 1.905 . S
O139 C133 1.182 . S
O140 Zn131 1.898 . S
O140 C134 1.167 . S
O141 Zn132 2.120 . S
O141 C134 1.299 . S
O142 Zn130 1.898 . S
O142 C137 1.167 . S
O143 Zn132 2.120 . S
O143 C137 1.299 . S
O144 Zn132 2.114 . S
O144 C146 1.166 . S
O145 Zn130 1.905 . S
O145 C146 1.182 . S
C146 O144 1.166 . S
C146 O145 1.182 . S
O147 Zn132 2.080 . S
O147 C150 1.305 . S
O148 Zn131 1.920 . S
O148 C150 1.234 . S
C149 O135 1.305 . S
C149 O136 1.234 . S
C150 O147 1.305 . S
C150 O148 1.234 . S
Zn151 O157 1.920 . S
Zn151 O163 1.898 . S
Zn151 O166 1.905 . S
Zn152 O160 1.905 1_655 S
Zn152 O161 1.898 . S
Zn152 O169 1.920 . S
Zn153 O156 2.080 1_554 S
Zn153 O159 2.114 . S
Zn153 O162 2.120 1_454 S
Zn153 O164 2.120 . S
Zn153 O165 2.114 1_554 S
Zn153 O168 2.080 . S
C154 O159 1.166 . S
C154 O160 1.182 . S
C155 O161 1.167 1_556 S
C155 O162 1.299 . S
O156 Zn153 2.080 1_556 S
O156 C170 1.305 . S
O157 Zn151 1.920 . S
O157 C170 1.234 . S
C158 O163 1.167 1_554 S
C158 O164 1.299 . S
O159 Zn153 2.114 . S
O159 C154 1.166 . S
O160 Zn152 1.905 1_455 S
O160 C154 1.182 . S
O161 Zn152 1.898 . S
O161 C155 1.167 1_554 S
O162 Zn153 2.120 1_656 S
O162 C155 1.299 . S
O163 Zn151 1.898 . S
O163 C158 1.167 1_556 S
O164 Zn153 2.120 . S
O164 C158 1.299 . S
O165 Zn153 2.114 1_556 S
O165 C167 1.166 . S
O166 Zn151 1.905 . S
O166 C167 1.182 . S
C167 O165 1.166 . S
C167 O166 1.182 . S
O168 Zn153 2.080 . S
O168 C171 1.305 1_455 S
O169 Zn152 1.920 . S
O169 C171 1.234 . S
C170 O156 1.305 . S
C170 O157 1.234 . S
C171 O168 1.305 1_655 S
C171 O169 1.234 . S
C5 C91 1.523 . S
C18 C125 1.469 . S
C137 C30 1.372 . S
C41 C171 1.736 1_455 S
C128 C7 1.707 . S
C108 C16 2.352 . S
C155 C29 1.393 . S
C146 C38 0.726 . S
C8 C154 1.754 . S
C116 C27 2.410 . S
C40 C92 1.189 . S
C19 C149 1.349 . S
C107 C51 1.843 . S
C62 C129 1.544 . S
C74 C134 1.846 . S
C84 C167 1.337 . S
C49 C112 2.537 1_545 S
C104 C63 1.733 . S
C158 C71 0.956 . S
C150 C85 1.653 . S
C52 C170 1.923 1_554 S
C113 C73 1.870 . S
C95 C82 0.985 . S
C60 C133 1.286 . S
