# Generated by pormake.
# Topology scu, (8,4)-cn, num edge types: 1
# Building blocks:
#     Node 0, Type 0, BuildingBlock: GIZVER_clean_sbu_0, # of connection points: 8
#     Node 1, Type 1, BuildingBlock: KOZSID_clean_sbu_0, # of connection points: 4
#     Node 2, Type 1, BuildingBlock: KOZSID_clean_sbu_0, # of connection points: 4
#     Edge 3, Type (0, 1), BuildingBlock: OJICUG_clean_linker_0, # of connection points: 2
#     Edge 4, Type (0, 1), BuildingBlock: OJICUG_clean_linker_0, # of connection points: 2
#     Edge 5, Type (0, 1), BuildingBlock: OJICUG_clean_linker_0, # of connection points: 2
#     Edge 6, Type (0, 1), BuildingBlock: OJICUG_clean_linker_0, # of connection points: 2
#     Edge 7, Type (0, 1), BuildingBlock: OJICUG_clean_linker_0, # of connection points: 2
#     Edge 8, Type (0, 1), BuildingBlock: OJICUG_clean_linker_0, # of connection points: 2
#     Edge 9, Type (0, 1), BuildingBlock: OJICUG_clean_linker_0, # of connection points: 2
#     Edge 10, Type (0, 1), BuildingBlock: OJICUG_clean_linker_0, # of connection points: 2
# Relax obj value: 0.045
# Max RMSD: 0.111
# Mean RMSD: 0.103
data_MOF--net-scu--node1-GIZVER_clean_sbu_0--node2-KOZSID_clean_sbu_0--edge1-OJICUG_clean_linker_0
_symmetry_space_group_name_H-M    P1
_symmetry_Int_Tables_number       1
_symmetry_cell_setting            triclinic
loop_
_symmetry_equiv_pos_as_xyz
'x, y, z'
_cell_length_a     20.605836
_cell_length_b     21.156406
_cell_length_c     18.443714
_cell_angle_alpha  96.658063
_cell_angle_beta   75.03444
_cell_angle_gamma 112.25013
loop_
_atom_site_label
_atom_site_type_symbol
_atom_site_fract_x
_atom_site_fract_y
_atom_site_fract_z
_atom_type_partial_charge
Co0 Co 0.01179 0.92541 0.16967 0.0
Co1 Co 0.12836 0.02233 0.10609 0.0
Co2 Co 0.00889 0.01424 1.02402 0.0
O3 O 0.05138 0.96263 0.06995 0.0
H4 H 0.0674 0.93128 0.0343 0.0
O5 O 0.96638 0.06606 0.97851 0.0
Co6 Co 1.00444 0.10324 0.87904 0.0
Co7 Co 0.89088 1.00605 0.94188 0.0
H8 H 0.94969 0.09684 1.01448 0.0
O9 O 0.20022 0.99438 0.11225 0.0
O10 O 0.09986 0.98946 0.20207 0.0
O11 O 0.1414 0.11739 0.11696 0.0
O12 O 0.03673 0.09943 0.09006 0.0
O13 O 0.10162 0.04939 0.94645 0.0
O14 O 0.03687 0.14332 0.79011 0.0
O15 O 0.96821 0.17187 0.89456 0.0
O16 O 0.05262 0.03908 0.84907 0.0
O17 O 0.9815 0.92891 0.95808 0.0
O18 O 0.87787 0.91127 0.92952 0.0
O19 O 0.91402 0.04067 0.84773 0.0
O20 O 0.81653 0.03092 0.9444 0.0
C21 C 0.01419 0.84625 0.22518 0.0
C22 C 0.91096 0.98603 0.17169 0.0
C23 C 0.09019 0.13687 0.11771 0.0
C24 C 0.16308 0.98373 0.18126 0.0
C25 C 1.00254 0.18289 0.82405 0.0
C26 C 0.10527 0.04193 0.87573 0.0
C27 C 0.92866 0.89162 0.92958 0.0
C28 C 0.84903 0.04238 0.87403 0.0
O29 O 0.97882 0.88512 0.25873 0.0
O30 O 0.04912 0.85767 0.15493 0.0
O31 O 0.9156 0.97892 0.1009 0.0
O32 O 0.96308 0.98886 0.19899 0.0
C33 C 0.08249 0.63704 0.41787 0.0
C34 C 0.14924 0.68733 0.39117 0.0
C35 C 0.1974 0.67586 0.42158 0.0
C36 C 0.15763 0.61969 0.46528 0.0
N37 N 0.08679 0.5943 0.46473 0.0
Co38 Co 0.00965 0.51446 0.52363 0.0
N39 N 0.08049 0.49896 0.56995 0.0
C40 C 0.15196 0.53598 0.55827 0.0
C41 C 0.18701 0.51416 0.59802 0.0
C42 C 0.135 0.45963 0.63729 0.0
C43 C 0.07088 0.45097 0.61889 0.0
N44 N 0.93249 0.43465 0.58254 0.0
C45 C 0.93665 0.39232 0.62997 0.0
C46 C 0.86989 0.34211 0.6568 0.0
C47 C 0.82184 0.35323 0.6259 0.0
C48 C 0.8617 0.40913 0.58182 0.0
N49 N 0.93879 0.52997 0.47734 0.0
C50 C 0.86738 0.49277 0.48878 0.0
C51 C 0.83229 0.51466 0.44915 0.0
C52 C 0.88419 0.56947 0.41028 0.0
C53 C 0.94828 0.57825 0.42882 0.0
N54 N 0.02812 0.45123 0.43872 0.0
C55 C 0.0544 0.35816 0.32189 0.0
C56 C 0.98414 0.35331 0.35826 0.0
C57 C 0.9724 0.40005 0.41548 0.0
C58 C 0.11123 0.41156 0.34434 0.0
C59 C 0.09704 0.4568 0.40237 0.0
N60 N 0.99121 0.57764 0.6085 0.0
C61 C 0.90812 0.6171 0.70308 0.0
C62 C 0.96496 0.67051 0.7255 0.0
C63 C 0.03523 0.67548 0.68901 0.0
C64 C 0.04696 0.62881 0.63171 0.0
C65 C 0.9223 0.57197 0.64492 0.0
H66 H 0.10173 0.6358 0.60648 0.0
H67 H 0.87653 0.53318 0.63009 0.0
H68 H 0.91763 0.39309 0.44062 0.0
H69 H 0.14282 0.4956 0.41715 0.0
C70 C 0.1847 0.59087 0.50939 0.0
C71 C 0.01643 0.63346 0.39883 0.0
C72 C 1.00257 0.39623 0.64953 0.0
C73 C 0.83464 0.43786 0.53761 0.0
H74 H 0.16184 0.72871 0.35433 0.0
H75 H 0.25445 0.70563 0.41372 0.0
H76 H 0.24369 0.53536 0.59836 0.0
H77 H 0.14337 0.42961 0.67523 0.0
H78 H 0.8572 0.30107 0.69415 0.0
H79 H 0.76477 0.32351 0.63383 0.0
H80 H 0.77563 0.49339 0.44873 0.0
H81 H 0.87574 0.59965 0.37259 0.0
H82 H 0.93789 0.31255 0.34421 0.0
H83 H 0.16678 0.41871 0.31741 0.0
H84 H 0.85257 0.60985 0.73011 0.0
H85 H 0.08148 0.71627 0.70303 0.0
C86 C 0.37235 0.95594 0.6516 0.0
C87 C 0.32268 0.89525 0.68435 0.0
C88 C 0.34467 0.84427 0.64811 0.0
C89 C 0.40607 0.87653 0.59531 0.0
N90 N 0.42562 0.94526 0.59651 0.0
Co91 Co 0.50687 1.01083 0.52366 0.0
N92 N 0.53751 0.9355 0.4683 0.0
C93 C 0.50796 0.86856 0.48562 0.0
C94 C 0.54315 0.82951 0.44072 0.0
C95 C 0.59954 0.87438 0.39275 0.0
C96 C 0.59537 0.93844 0.4112 0.0
N97 N 0.5854 0.07588 0.44844 0.0
C98 C 0.63669 0.06507 0.39084 0.0
C99 C 0.68131 0.12486 0.35295 0.0
C100 C 0.65799 0.17535 0.3884 0.0
C101 C 0.60058 0.14371 0.44559 0.0
N102 N 0.47875 0.08657 0.58148 0.0
C103 C 0.51281 0.1542 0.56862 0.0
C104 C 0.48124 0.19406 0.61735 0.0
C105 C 0.42311 0.14919 0.66369 0.0
C106 C 0.42237 0.08426 0.64016 0.0
N107 N 0.57517 0.02378 0.58762 0.0
C108 C 0.67326 0.03978 0.67582 0.0
C109 C 0.68074 0.09373 0.63375 0.0
C110 C 0.63088 0.08491 0.59086 0.0
C111 C 0.61669 0.97774 0.67275 0.0
C112 C 0.56899 0.97073 0.62828 0.0
N113 N 0.43848 0.99782 0.45989 0.0
C114 C 0.37206 0.04367 0.40413 0.0
C115 C 0.33382 0.97874 0.37903 0.0
C116 C 0.34948 0.92357 0.39367 0.0
C117 C 0.40134 0.9341 0.43436 0.0
C118 C 0.4244 0.05215 0.4433 0.0
H119 H 0.41004 0.88981 0.4447 0.0
H120 H 0.45265 0.10317 0.45967 0.0
H121 H 0.63849 0.1284 0.56116 0.0
H122 H 0.52762 0.92181 0.62777 0.0
C123 C 0.44667 0.84394 0.54386 0.0
C124 C 0.36497 0.02201 0.67276 0.0
C125 C 0.64847 1.00055 0.37366 0.0
C126 C 0.56713 0.17753 0.50381 0.0
H127 H 0.27478 0.88844 0.72892 0.0
H128 H 0.31833 0.79002 0.65816 0.0
H129 H 0.52983 0.77503 0.4431 0.0
H130 H 0.63967 0.86159 0.34952 0.0
H131 H 0.72762 0.13179 0.30633 0.0
H132 H 0.68236 0.22931 0.37632 0.0
H133 H 0.49657 0.24896 0.61693 0.0
H134 H 0.38428 0.16252 0.7082 0.0
H135 H 0.72361 0.1429 0.63549 0.0
H136 H 0.60932 0.93459 0.7046 0.0
H137 H 0.36276 0.08807 0.39213 0.0
H138 H 0.32134 0.87243 0.37443 0.0
C139 C 0.03068 0.22288 0.16481 0.0
C140 C 0.08673 0.19945 0.16204 0.0
H141 H 0.97753 0.29205 0.21546 0.0
C142 C 0.13505 0.23211 0.20836 0.0
H143 H 0.99254 0.19918 0.12984 0.0
C144 C 0.12562 0.28453 0.25858 0.0
C145 C 0.06797 0.30635 0.26353 0.0
H146 H 0.17859 0.21528 0.20831 0.0
H147 H 0.162 0.30589 0.29571 0.0
C148 C 0.02162 0.2758 0.21464 0.0
C149 C 0.83504 0.99191 0.30157 0.0
C150 C 0.84426 0.99145 0.22313 0.0
H151 H 0.76567 0.99491 0.41023 0.0
C152 C 0.78856 0.99511 0.19469 0.0
H153 H 0.8765 0.98899 0.32565 0.0
C154 C 0.72527 0.99871 0.24343 0.0
C155 C 0.71634 0.99859 0.32147 0.0
H156 H 0.79369 0.99501 0.13473 0.0
H157 H 0.68304 1.00114 0.22028 0.0
C158 C 0.77168 0.99522 0.35013 0.0
C159 C 0.05205 0.74706 0.23484 0.0
C160 C 0.01591 0.79158 0.26845 0.0
H161 H 0.08019 0.66187 0.24961 0.0
C162 C 0.98095 0.7838 0.34523 0.0
H163 H 0.0797 0.75156 0.17607 0.0
C164 C 0.98173 0.733 0.38705 0.0
C165 C 0.01726 0.68834 0.35343 0.0
H166 H 0.95277 0.81709 0.37342 0.0
H167 H 0.95433 0.72843 0.44594 0.0
C168 C 0.0525 0.69583 0.27688 0.0
C169 C 0.24771 0.9397 0.21408 0.0
C170 C 0.19679 0.97153 0.23681 0.0
H171 H 0.33035 0.91609 0.24237 0.0
C172 C 0.18511 0.99855 0.3101 0.0
H173 H 0.25722 0.91804 0.15793 0.0
C174 C 0.22787 0.99853 0.35788 0.0
C175 C 0.28153 0.96998 0.33354 0.0
H176 H 0.14619 0.02343 0.32881 0.0
H177 H 0.22068 0.02272 0.41293 0.0
C178 C 0.28928 0.93835 0.26233 0.0
C179 C 0.98867 0.80598 0.88241 0.0
C180 C 0.9324 0.82912 0.8853 0.0
H181 H 0.04209 0.73704 0.83167 0.0
C182 C 0.88398 0.79622 0.83914 0.0
H183 H 0.0269 0.8299 0.91724 0.0
C184 C 0.89352 0.74385 0.78894 0.0
C185 C 0.95136 0.7223 0.78386 0.0
H186 H 0.84024 0.8128 0.8393 0.0
H187 H 0.85706 0.72234 0.75192 0.0
C188 C 0.99784 0.75309 0.8326 0.0
C189 C 0.22584 0.02889 0.85193 0.0
C190 C 0.17128 0.03542 0.82383 0.0
H191 H 0.32969 0.01915 0.82588 0.0
C192 C 0.18101 0.03666 0.74546 0.0
H193 H 0.22027 0.02755 0.91181 0.0
C194 C 0.2438 0.03218 0.69665 0.0
C195 C 0.29792 0.02584 0.72503 0.0
H196 H 0.14043 0.04183 0.72168 0.0
H197 H 0.25026 0.03379 0.63662 0.0
C198 C 0.28843 0.024 0.80296 0.0
C199 C 0.03587 0.24495 0.70381 0.0
C200 C 1.0015 0.23792 0.78078 0.0
H201 H 0.06265 0.29985 0.60274 0.0
C202 C 0.96668 0.28346 0.81441 0.0
H203 H 0.06304 0.21086 0.67556 0.0
C204 C 0.96685 0.33486 0.77213 0.0
C205 C 1.00149 0.34154 0.69538 0.0
H206 H 0.93954 0.27958 0.87333 0.0
H207 H 0.94004 0.36953 0.79932 0.0
C208 C 0.03578 0.29594 0.66179 0.0
C209 C 0.73267 0.03426 0.85032 0.0
C210 C 0.80721 0.04932 0.82319 0.0
H211 H 0.63251 0.0194 0.82453 0.0
C212 C 0.83884 0.06686 0.74749 0.0
H213 H 0.70626 0.02082 0.90829 0.0
C214 C 0.79593 0.06683 0.69947 0.0
C215 C 0.72098 0.04819 0.72648 0.0
H216 H 0.89616 0.07918 0.72513 0.0
H217 H 0.82071 0.0787 0.64085 0.0
C218 C 0.6901 0.03322 0.80243 0.0
loop_
_geom_bond_atom_site_label_1
_geom_bond_atom_site_label_2
_geom_bond_distance
_geom_bond_site_symmetry_2
_ccdc_geom_bond_type
Co0 O3 2.042 1_655 S
Co0 O10 2.264 1_655 S
Co0 O29 2.286 . S
Co0 O30 2.069 1_655 S
Co0 O32 2.015 . S
Co1 O3 2.122 1_545 S
Co1 O9 2.073 . S
Co1 O10 2.327 1_545 S
Co1 O11 1.976 . S
Co2 O3 2.097 1_545 S
Co2 O5 2.077 1_454 S
Co2 O12 2.121 . S
Co2 O13 2.146 1_554 S
Co2 O17 2.102 1_444 S
Co2 O31 2.141 1_445 S
O3 Co0 2.042 1_455 S
O3 Co1 2.122 1_565 S
O3 Co2 2.097 1_565 S
O3 H4 0.980 . S
H4 O3 0.980 . S
O5 Co2 2.077 1_656 S
O5 Co6 2.042 1_655 S
O5 Co7 2.122 1_545 S
O5 H8 0.980 . S
Co6 O5 2.042 1_455 S
Co6 O14 2.286 . S
Co6 O15 2.069 1_455 S
Co6 O16 2.015 . S
Co6 O19 2.264 1_455 S
Co7 O5 2.122 1_565 S
Co7 O18 1.976 . S
Co7 O19 2.327 1_565 S
Co7 O20 2.073 . S
H8 O5 0.980 . S
O9 Co1 2.073 . S
O9 C24 1.245 1_545 S
O10 Co0 2.264 1_455 S
O10 Co1 2.327 1_565 S
O10 C24 1.257 . S
O11 Co1 1.976 . S
O11 C23 1.251 . S
O12 Co2 2.121 . S
O12 C23 1.274 . S
O13 Co2 2.146 1_556 S
O13 C26 1.246 . S
O14 Co6 2.286 . S
O14 C25 1.259 . S
O15 Co6 2.069 1_655 S
O15 C25 1.289 1_655 S
O16 Co6 2.015 . S
O16 C26 1.257 . S
O17 Co2 2.102 1_666 S
O17 C27 1.274 . S
O18 Co7 1.976 . S
O18 C27 1.251 . S
O19 Co6 2.264 1_655 S
O19 Co7 2.327 1_545 S
O19 C28 1.257 . S
O20 Co7 2.073 . S
O20 C28 1.245 1_565 S
C21 O29 1.259 . S
C21 O30 1.289 1_655 S
C22 O31 1.246 . S
C22 O32 1.257 . S
C23 O11 1.251 . S
C23 O12 1.274 . S
C24 O9 1.245 1_565 S
C24 O10 1.257 . S
C25 O14 1.259 . S
C25 O15 1.289 1_455 S
C26 O13 1.246 . S
C26 O16 1.257 . S
C27 O17 1.274 . S
C27 O18 1.251 . S
C28 O19 1.257 . S
C28 O20 1.245 1_545 S
O29 Co0 2.286 . S
O29 C21 1.259 . S
O30 Co0 2.069 1_455 S
O30 C21 1.289 1_455 S
O31 Co2 2.141 1_665 S
O31 C22 1.246 . S
O32 Co0 2.015 . S
O32 C22 1.257 . S
C33 C34 1.443 . S
C33 N37 1.376 . S
C33 C71 1.389 . S
C34 C33 1.443 . S
C34 C35 1.340 . S
C34 H74 0.951 . S
C35 C34 1.340 . S
C35 C36 1.439 . S
C35 H75 0.950 . S
C36 C35 1.439 . S
C36 N37 1.374 . S
C36 C70 1.395 . S
N37 C33 1.376 . S
N37 C36 1.374 . S
N37 Co38 2.011 . S
Co38 N37 2.011 . S
Co38 N39 2.004 . S
Co38 N44 2.005 1_455 S
Co38 N49 1.985 1_455 S
Co38 N54 2.284 . S
Co38 N60 2.281 1_455 S
N39 Co38 2.004 . S
N39 C40 1.376 . S
N39 C43 1.383 . S
C40 N39 1.376 . S
C40 C41 1.446 . S
C40 C70 1.391 . S
C41 C40 1.446 . S
C41 C42 1.339 . S
C41 H76 0.949 . S
C42 C41 1.339 . S
C42 C43 1.439 . S
C42 H77 0.950 . S
C43 N39 1.383 . S
C43 C42 1.439 . S
C43 C72 1.389 1_455 S
N44 Co38 2.005 1_655 S
N44 C45 1.376 . S
N44 C48 1.374 . S
C45 N44 1.376 . S
C45 C46 1.443 . S
C45 C72 1.393 . S
C46 C45 1.443 . S
C46 C47 1.340 . S
C46 H78 0.951 . S
C47 C46 1.340 . S
C47 C48 1.439 . S
C47 H79 0.950 . S
C48 N44 1.374 . S
C48 C47 1.439 . S
C48 C73 1.395 . S
N49 Co38 1.985 1_655 S
N49 C50 1.376 . S
N49 C53 1.383 . S
C50 N49 1.376 . S
C50 C51 1.446 . S
C50 C73 1.391 . S
C51 C50 1.446 . S
C51 C52 1.339 . S
C51 H80 0.949 . S
C52 C51 1.339 . S
C52 C53 1.439 . S
C52 H81 0.950 . S
C53 N49 1.383 . S
C53 C52 1.439 . S
C53 C71 1.392 1_655 S
N54 Co38 2.284 . S
N54 C57 1.332 1_455 S
N54 C59 1.332 . S
C55 C56 1.386 1_455 S
C55 C58 1.388 . S
C56 C55 1.386 1_655 S
C56 C57 1.382 . S
C56 H82 0.950 . S
C57 N54 1.332 1_655 S
C57 C56 1.382 . S
C57 H68 0.952 . S
C58 C55 1.388 . S
C58 C59 1.382 . S
C58 H83 0.950 . S
C59 N54 1.332 . S
C59 C58 1.382 . S
C59 H69 0.948 . S
N60 Co38 2.281 1_655 S
N60 C64 1.332 1_655 S
N60 C65 1.332 . S
C61 C62 1.389 . S
C61 C65 1.382 . S
C61 H84 0.950 . S
C62 C61 1.389 . S
C62 C63 1.385 1_655 S
C63 C62 1.385 1_455 S
C63 C64 1.382 . S
C63 H85 0.950 . S
C64 N60 1.332 1_455 S
C64 C63 1.382 . S
C64 H66 0.952 . S
C65 N60 1.332 . S
C65 C61 1.382 . S
C65 H67 0.948 . S
H66 C64 0.952 . S
H67 C65 0.948 . S
H68 C57 0.952 . S
H69 C59 0.948 . S
C70 C36 1.395 . S
C70 C40 1.391 . S
C71 C33 1.389 . S
C71 C53 1.392 1_455 S
C72 C43 1.389 1_655 S
C72 C45 1.393 . S
C73 C48 1.395 . S
C73 C50 1.391 . S
H74 C34 0.951 . S
H75 C35 0.950 . S
H76 C41 0.949 . S
H77 C42 0.950 . S
H78 C46 0.951 . S
H79 C47 0.950 . S
H80 C51 0.949 . S
H81 C52 0.950 . S
H82 C56 0.950 . S
H83 C58 0.950 . S
H84 C61 0.950 . S
H85 C63 0.950 . S
C86 C87 1.443 . S
C86 N90 1.376 . S
C86 C124 1.393 . S
C87 C86 1.443 . S
C87 C88 1.340 . S
C87 H127 0.951 . S
C88 C87 1.340 . S
C88 C89 1.439 . S
C88 H128 0.950 . S
C89 C88 1.439 . S
C89 N90 1.374 . S
C89 C123 1.395 . S
N90 C86 1.376 . S
N90 C89 1.374 . S
N90 Co91 2.004 1_565 S
Co91 N90 2.004 1_545 S
Co91 N92 1.988 1_545 S
Co91 N97 2.012 . S
Co91 N102 2.002 . S
Co91 N107 2.279 1_545 S
Co91 N113 2.286 . S
N92 Co91 1.988 1_565 S
N92 C93 1.376 . S
N92 C96 1.383 . S
C93 N92 1.376 . S
C93 C94 1.446 . S
C93 C123 1.391 . S
C94 C93 1.446 . S
C94 C95 1.339 . S
C94 H129 0.949 . S
C95 C94 1.339 . S
C95 C96 1.439 . S
C95 H130 0.950 . S
C96 N92 1.383 . S
C96 C95 1.439 . S
C96 C125 1.392 1_565 S
N97 Co91 2.012 . S
N97 C98 1.376 . S
N97 C101 1.374 . S
C98 N97 1.376 . S
C98 C99 1.443 . S
C98 C125 1.389 . S
C99 C98 1.443 . S
C99 C100 1.340 . S
C99 H131 0.951 . S
C100 C99 1.340 . S
C100 C101 1.439 . S
C100 H132 0.950 . S
C101 N97 1.374 . S
C101 C100 1.439 . S
C101 C126 1.395 . S
N102 Co91 2.002 . S
N102 C103 1.376 . S
N102 C106 1.383 . S
C103 N102 1.376 . S
C103 C104 1.446 . S
C103 C126 1.391 . S
C104 C103 1.446 . S
C104 C105 1.339 . S
C104 H133 0.949 . S
C105 C104 1.339 . S
C105 C106 1.439 . S
C105 H134 0.950 . S
C106 N102 1.383 . S
C106 C105 1.439 . S
C106 C124 1.389 1_545 S
N107 Co91 2.279 1_565 S
N107 C110 1.332 1_565 S
N107 C112 1.332 . S
C108 C109 1.384 1_565 S
C108 C111 1.389 . S
C109 C108 1.384 1_545 S
C109 C110 1.382 . S
C109 H135 0.950 . S
C110 N107 1.332 1_545 S
C110 C109 1.382 . S
C110 H121 0.952 . S
C111 C108 1.389 . S
C111 C112 1.382 . S
C111 H136 0.950 . S
C112 N107 1.332 . S
C112 C111 1.382 . S
C112 H122 0.948 . S
N113 Co91 2.286 . S
N113 C117 1.332 1_545 S
N113 C118 1.332 . S
C114 C115 1.388 . S
C114 C118 1.382 . S
C114 H137 0.950 . S
C115 C114 1.388 . S
C115 C116 1.386 1_545 S
C116 C115 1.386 1_565 S
C116 C117 1.382 . S
C116 H138 0.950 . S
C117 N113 1.332 1_565 S
C117 C116 1.382 . S
C117 H119 0.952 . S
C118 N113 1.332 . S
C118 C114 1.382 . S
C118 H120 0.948 . S
H119 C117 0.952 . S
H120 C118 0.948 . S
H121 C110 0.952 . S
H122 C112 0.948 . S
C123 C89 1.395 . S
C123 C93 1.391 . S
C124 C86 1.393 . S
C124 C106 1.389 1_565 S
C125 C96 1.392 1_545 S
C125 C98 1.389 . S
C126 C101 1.395 . S
C126 C103 1.391 . S
H127 C87 0.951 . S
H128 C88 0.950 . S
H129 C94 0.949 . S
H130 C95 0.950 . S
H131 C99 0.951 . S
H132 C100 0.950 . S
H133 C104 0.949 . S
H134 C105 0.950 . S
H135 C109 0.950 . S
H136 C111 0.950 . S
H137 C114 0.950 . S
H138 C116 0.950 . S
C139 C140 1.395 . S
C139 H143 0.950 . S
C139 C148 1.390 . S
C140 C139 1.395 . S
C140 C142 1.380 1_655 S
H141 C148 0.950 . S
C142 C140 1.380 1_455 S
C142 C144 1.390 . S
C142 H146 0.950 . S
H143 C139 0.950 . S
C144 C142 1.390 . S
C144 C145 1.391 . S
C144 H147 0.950 . S
C145 C144 1.391 . S
C145 C148 1.385 1_455 S
H146 C142 0.950 . S
H147 C144 0.950 . S
C148 C139 1.390 . S
C148 H141 0.950 . S
C148 C145 1.385 1_655 S
C149 C150 1.387 . S
C149 H153 0.950 . S
C149 C158 1.390 . S
C150 C149 1.387 . S
C150 C152 1.387 1_565 S
H151 C158 0.950 . S
C152 C150 1.387 1_545 S
C152 C154 1.390 . S
C152 H156 0.950 . S
H153 C149 0.950 . S
C154 C152 1.390 . S
C154 C155 1.387 1_545 S
C154 H157 0.950 . S
C155 C154 1.387 1_565 S
C155 C158 1.387 . S
H156 C152 0.950 . S
H157 C154 0.950 . S
C158 C149 1.390 . S
C158 H151 0.950 . S
C158 C155 1.387 . S
C159 C160 1.387 1_655 S
C159 H163 0.950 . S
C159 C168 1.390 . S
C160 C159 1.387 1_455 S
C160 C162 1.387 . S
H161 C168 0.950 . S
C162 C160 1.387 . S
C162 C164 1.390 . S
C162 H166 0.950 . S
H163 C159 0.950 . S
C164 C162 1.390 . S
C164 C165 1.387 . S
C164 H167 0.950 . S
C165 C164 1.387 . S
C165 C168 1.387 1_455 S
H166 C162 0.950 . S
H167 C164 0.950 . S
C168 C159 1.390 . S
C168 H161 0.950 . S
C168 C165 1.387 1_655 S
C169 C170 1.387 . S
C169 H173 0.950 . S
C169 C178 1.390 . S
C170 C169 1.387 . S
C170 C172 1.387 1_565 S
H171 C178 0.950 . S
C172 C170 1.387 1_545 S
C172 C174 1.390 . S
C172 H176 0.950 . S
H173 C169 0.950 . S
C174 C172 1.390 . S
C174 C175 1.387 1_545 S
C174 H177 0.950 . S
C175 C174 1.387 1_565 S
C175 C178 1.387 . S
H176 C172 0.950 . S
H177 C174 0.950 . S
C178 C169 1.390 . S
C178 H171 0.950 . S
C178 C175 1.387 . S
C179 C180 1.387 . S
C179 H183 0.950 . S
C179 C188 1.390 . S
C180 C179 1.387 . S
C180 C182 1.387 1_455 S
H181 C188 0.950 . S
C182 C180 1.387 1_655 S
C182 C184 1.390 . S
C182 H186 0.950 . S
H183 C179 0.950 . S
C184 C182 1.390 . S
C184 C185 1.382 1_655 S
C184 H187 0.950 . S
C185 C184 1.382 1_455 S
C185 C188 1.393 . S
H186 C182 0.950 . S
H187 C184 0.950 . S
C188 C179 1.390 . S
C188 H181 0.950 . S
C188 C185 1.393 . S
C189 C190 1.387 1_565 S
C189 H193 0.950 . S
C189 C198 1.390 . S
C190 C189 1.387 1_545 S
C190 C192 1.387 . S
H191 C198 0.950 . S
C192 C190 1.387 . S
C192 C194 1.390 . S
C192 H196 0.950 . S
H193 C189 0.950 . S
C194 C192 1.390 . S
C194 C195 1.387 . S
C194 H197 0.950 . S
C195 C194 1.387 . S
C195 C198 1.387 1_545 S
H196 C192 0.950 . S
H197 C194 0.950 . S
C198 C189 1.390 . S
C198 H191 0.950 . S
C198 C195 1.387 1_565 S
C199 C200 1.387 . S
C199 H203 0.950 . S
C199 C208 1.390 . S
C200 C199 1.387 . S
C200 C202 1.387 1_655 S
H201 C208 0.950 . S
C202 C200 1.387 1_455 S
C202 C204 1.390 . S
C202 H206 0.950 . S
H203 C199 0.950 . S
C204 C202 1.390 . S
C204 C205 1.381 1_455 S
C204 H207 0.950 . S
C205 C204 1.381 1_655 S
C205 C208 1.389 . S
H206 C202 0.950 . S
H207 C204 0.950 . S
C208 C199 1.390 . S
C208 H201 0.950 . S
C208 C205 1.389 . S
C209 C210 1.387 1_565 S
C209 H213 0.950 . S
C209 C218 1.390 . S
C210 C209 1.387 1_545 S
C210 C212 1.387 . S
H211 C218 0.950 . S
C212 C210 1.387 . S
C212 C214 1.390 . S
C212 H216 0.950 . S
H213 C209 0.950 . S
C214 C212 1.390 . S
C214 C215 1.387 . S
C214 H217 0.950 . S
C215 C214 1.387 . S
C215 C218 1.387 1_545 S
H216 C212 0.950 . S
H217 C214 0.950 . S
C218 C209 1.390 . S
C218 H211 0.950 . S
C218 C215 1.387 1_565 S
C140 C23 1.308 1_655 S
C145 C55 1.409 . S
C150 C22 1.569 . S
C155 C125 1.604 1_565 S
C160 C21 1.815 1_455 S
C165 C71 1.822 . S
C170 C24 1.436 . S
C175 C115 1.521 1_565 S
C180 C27 1.313 1_455 S
C185 C62 1.410 1_455 S
C190 C26 1.569 . S
C195 C124 1.603 1_545 S
C205 C72 1.825 . S
C200 C25 1.814 1_655 S
C210 C28 1.436 . S
C215 C108 1.521 1_545 S
