# Generated by pormake.
# Topology bcu-b, (8,8)-cn, num edge types: 1
# Building blocks:
#     Node 0, Type 0, BuildingBlock: TAGTUT_clean_sbu_1, # of connection points: 8
#     Node 1, Type 1, BuildingBlock: GIZVER_clean_sbu_0, # of connection points: 8
#     Edge 2, Type (0, 1), BuildingBlock: XIVTED_clean_linker_0, # of connection points: 2
#     Edge 3, Type (0, 1), BuildingBlock: XIVTED_clean_linker_0, # of connection points: 2
#     Edge 4, Type (0, 1), BuildingBlock: XIVTED_clean_linker_0, # of connection points: 2
#     Edge 5, Type (0, 1), BuildingBlock: XIVTED_clean_linker_0, # of connection points: 2
#     Edge 6, Type (0, 1), BuildingBlock: XIVTED_clean_linker_0, # of connection points: 2
#     Edge 7, Type (0, 1), BuildingBlock: XIVTED_clean_linker_0, # of connection points: 2
#     Edge 8, Type (0, 1), BuildingBlock: XIVTED_clean_linker_0, # of connection points: 2
#     Edge 9, Type (0, 1), BuildingBlock: XIVTED_clean_linker_0, # of connection points: 2
# Relax obj value: 0.105
# Max RMSD: 0.175
# Mean RMSD: 0.169
data_MOF--net-bcu-b--node1-TAGTUT_clean_sbu_1--node2-GIZVER_clean_sbu_0--edge1-XIVTED_clean_linker_0
_symmetry_space_group_name_H-M    P1
_symmetry_Int_Tables_number       1
_symmetry_cell_setting            triclinic
loop_
_symmetry_equiv_pos_as_xyz
'x, y, z'
_cell_length_a     21.085998
_cell_length_b     22.458732
_cell_length_c     17.749922
_cell_angle_alpha  87.948692
_cell_angle_beta   94.591745
_cell_angle_gamma 108.86712
loop_
_atom_site_label
_atom_site_type_symbol
_atom_site_fract_x
_atom_site_fract_y
_atom_site_fract_z
_atom_type_partial_charge
C0 C 0.87852 0.15466 0.08341 0.0
C1 C 0.926 0.14378 0.85466 0.0
C2 C 0.87634 0.89608 0.9165 0.0
Mg3 Mg 1.00466 0.14982 0.00912 0.0
O4 O 0.96345 0.06384 0.02861 0.0
Mg5 Mg 0.8697 0.0264 0.98204 0.0
Mg6 Mg 1.00551 1.00324 0.99262 0.0
O7 O 0.04722 0.94248 0.95661 0.0
Mg8 Mg 1.00528 0.85668 0.977 0.0
Mg9 Mg 0.14089 0.97949 0.0033 0.0
C10 C 0.13429 0.11059 0.06858 0.0
C11 C 0.1167 0.07748 0.87414 0.0
O12 O 0.84497 0.10161 0.0523 0.0
O13 O 0.94147 0.18124 0.07614 0.0
O14 O 0.88408 0.09369 0.8797 0.0
O15 O 0.9806 0.17226 0.89306 0.0
O16 O 0.10616 0.15259 0.04987 0.0
O17 O 0.10286 0.05115 0.06352 0.0
C18 C 0.89462 0.92898 0.1114 0.0
O19 O 0.95303 0.93555 0.08893 0.0
O20 O 0.85746 0.95965 0.08101 0.0
O21 O 0.16495 0.90368 0.93294 0.0
O22 O 0.06801 0.82418 0.91073 0.0
O23 O 0.12609 0.9121 0.10568 0.0
C24 C 0.13089 0.85037 0.90268 0.0
O25 O 0.02866 0.83461 0.09336 0.0
O26 O 0.90395 0.85378 0.93555 0.0
C27 C 0.08371 0.86254 0.13126 0.0
O28 O 0.90825 0.95536 0.92185 0.0
O29 O 0.05822 0.07099 0.89641 0.0
O30 O 0.15352 0.04645 0.90449 0.0
Co31 Co 0.58261 0.39628 0.46343 0.0
Co32 Co 0.60025 0.44289 0.59623 0.0
Co33 Co 0.50539 0.50333 0.49259 0.0
O34 O 0.58741 0.47636 0.5026 0.0
H35 H 0.6276 0.50968 0.49028 0.0
O36 O 0.42353 0.53077 0.48253 0.0
Co37 Co 0.4291 0.61119 0.5224 0.0
Co38 Co 0.4114 0.56537 0.38903 0.0
H39 H 0.38318 0.49757 0.49466 0.0
O40 O 0.68574 0.44838 0.63233 0.0
O41 O 0.61109 0.36907 0.56521 0.0
O42 O 0.52606 0.42027 0.65907 0.0
O43 O 0.45502 0.4435 0.57226 0.0
O44 O 0.54802 0.56855 0.56994 0.0
O45 O 0.4291 0.68184 0.56151 0.0
O46 O 0.34344 0.59072 0.55027 0.0
O47 O 0.52034 0.64213 0.50371 0.0
O48 O 0.5559 0.56305 0.41302 0.0
O49 O 0.48614 0.58894 0.32687 0.0
O50 O 0.40111 0.63914 0.42098 0.0
O51 O 0.32618 0.56099 0.35261 0.0
C52 C 0.64442 0.35939 0.41189 0.0
C53 C 0.45599 0.37986 0.42811 0.0
C54 C 0.46699 0.41794 0.635 0.0
C55 C 0.66967 0.39313 0.60209 0.0
C56 C 0.3678 0.6488 0.57393 0.0
C57 C 0.55512 0.62652 0.55788 0.0
C58 C 0.54476 0.58985 0.35093 0.0
C59 C 0.3426 0.61592 0.38375 0.0
O60 O 0.58338 0.32574 0.42464 0.0
O61 O 0.66825 0.41746 0.43562 0.0
O62 O 0.46272 0.43774 0.41543 0.0
O63 O 0.49137 0.36477 0.48212 0.0
H64 H 0.23626 0.21096 0.02509 0.0
H65 H 0.41661 0.25109 0.44068 0.0
H66 H 0.18589 0.06465 0.19512 0.0
H67 H 0.41633 0.40187 0.28287 0.0
H68 H 0.35642 0.17469 0.34259 0.0
H69 H 0.3318 0.27106 0.10783 0.0
C70 C 0.24681 0.19067 0.07908 0.0
C71 C 0.20282 0.13359 0.10426 0.0
C72 C 0.37025 0.22453 0.32954 0.0
C73 C 0.31006 0.20283 0.20013 0.0
C74 C 0.40417 0.26807 0.3854 0.0
C75 C 0.42044 0.33287 0.37019 0.0
C76 C 0.3535 0.24618 0.25796 0.0
C77 C 0.4038 0.35241 0.29757 0.0
C78 C 0.30086 0.22518 0.12656 0.0
C79 C 0.21868 0.10885 0.17416 0.0
N80 N 0.37112 0.30926 0.24435 0.0
N81 N 0.27028 0.1445 0.22086 0.0
H82 H 0.75016 0.10832 0.12869 0.0
H83 H 0.77164 0.41402 0.36237 0.0
H84 H 0.9288 0.27118 0.14867 0.0
H85 H 0.60771 0.23872 0.36371 0.0
H86 H 0.83063 0.36478 0.28279 0.0
H87 H 0.69628 0.1584 0.2117 0.0
C88 C 0.77804 0.1547 0.15023 0.0
C89 C 0.84418 0.18544 0.13155 0.0
C90 C 0.78185 0.33722 0.30097 0.0
C91 C 0.78273 0.2432 0.22722 0.0
C92 C 0.74832 0.36524 0.34648 0.0
C93 C 0.68449 0.33066 0.36937 0.0
C94 C 0.75102 0.27442 0.27817 0.0
C95 C 0.65661 0.26754 0.34715 0.0
C96 C 0.74732 0.18324 0.198 0.0
C97 C 0.87776 0.24556 0.16159 0.0
N98 N 0.68981 0.24172 0.30262 0.0
N99 N 0.84666 0.2725 0.20785 0.0
H100 H 0.81197 0.93771 0.21572 0.0
H101 H 0.67499 0.58715 0.35756 0.0
H102 H 0.90209 0.80887 0.13058 0.0
H103 H 0.54772 0.69154 0.26169 0.0
H104 H 0.77308 0.66901 0.30937 0.0
H105 H 0.73182 0.84984 0.27775 0.0
C106 C 0.8163 0.89111 0.21217 0.0
C107 C 0.86344 0.88044 0.16757 0.0
C108 C 0.72339 0.67315 0.29857 0.0
C109 C 0.77136 0.77981 0.23768 0.0
C110 C 0.66754 0.62669 0.32566 0.0
C111 C 0.60299 0.63245 0.31338 0.0
C112 C 0.71441 0.72628 0.26143 0.0
C113 C 0.59622 0.68474 0.27207 0.0
C114 C 0.77021 0.84107 0.24695 0.0
C115 C 0.86689 0.81908 0.16499 0.0
N116 N 0.65131 0.73002 0.24873 0.0
N117 N 0.82052 0.77049 0.1988 0.0
H118 H 0.02558 0.74178 0.18298 0.0
H119 H 0.36768 0.7417 0.41152 0.0
H120 H 0.19454 0.90948 0.22989 0.0
H121 H 0.21185 0.57578 0.32687 0.0
H122 H 0.29392 0.80431 0.37396 0.0
H123 H 0.08101 0.68205 0.26667 0.0
C124 C 0.07346 0.7665 0.21238 0.0
C125 C 0.1061 0.83054 0.1978 0.0
C126 C 0.27568 0.75405 0.36452 0.0
C127 C 0.1704 0.76208 0.29278 0.0
C128 C 0.31777 0.71831 0.38589 0.0
C129 C 0.29653 0.65364 0.37067 0.0
C130 C 0.21182 0.72476 0.32824 0.0
C131 C 0.23097 0.62571 0.33826 0.0
C132 C 0.1054 0.73218 0.25975 0.0
C133 C 0.168 0.85992 0.23816 0.0
N134 N 0.19132 0.66147 0.31749 0.0
N135 N 0.1987 0.82527 0.28266 0.0
H136 H 0.08007 0.73213 0.84219 0.0
H137 H 0.4026 0.77149 0.61367 0.0
H138 H 0.25751 0.89642 0.85207 0.0
H139 H 0.24313 0.59428 0.63008 0.0
H140 H 0.34404 0.81966 0.69204 0.0
H141 H 0.13408 0.68248 0.75827 0.0
C142 C 0.13045 0.75781 0.82695 0.0
C143 C 0.1643 0.81874 0.85442 0.0
C144 C 0.32159 0.77026 0.6786 0.0
C145 C 0.22606 0.76203 0.75777 0.0
C146 C 0.35495 0.74256 0.6335 0.0
C147 C 0.32805 0.6784 0.61572 0.0
C148 C 0.26053 0.73384 0.70646 0.0
C149 C 0.26578 0.64381 0.64259 0.0
C150 C 0.16117 0.72931 0.77896 0.0
C151 C 0.22949 0.84944 0.83266 0.0
N152 N 0.23416 0.67194 0.68703 0.0
N153 N 0.25806 0.82083 0.78549 0.0
H154 H 0.1027 0.19502 0.85024 0.0
H155 H 0.46922 0.32522 0.73739 0.0
H156 H 0.20748 0.07369 0.77696 0.0
H157 H 0.33357 0.41159 0.61942 0.0
H158 H 0.37303 0.2437 0.78474 0.0
H159 H 0.18319 0.2846 0.78774 0.0
C160 C 0.1408 0.18672 0.81872 0.0
C161 C 0.14868 0.12692 0.81912 0.0
C162 C 0.36453 0.28096 0.74905 0.0
C163 C 0.24158 0.22868 0.7513 0.0
C164 C 0.41937 0.32789 0.72254 0.0
C165 C 0.40956 0.37523 0.67386 0.0
C166 C 0.29928 0.28169 0.72816 0.0
C167 C 0.34333 0.37569 0.65646 0.0
C168 C 0.18704 0.23788 0.78398 0.0
C169 C 0.20002 0.11911 0.77883 0.0
N170 N 0.29033 0.32943 0.68368 0.0
N171 N 0.24536 0.16957 0.74816 0.0
H172 H 0.81773 0.09489 0.75328 0.0
H173 H 0.80188 0.43611 0.6528 0.0
H174 H 0.98071 0.26588 0.8058 0.0
H175 H 0.64471 0.26631 0.58166 0.0
H176 H 0.87513 0.37408 0.69008 0.0
H177 H 0.76263 0.15508 0.67013 0.0
C178 C 0.84285 0.14487 0.74594 0.0
C179 C 0.90334 0.17555 0.78811 0.0
C180 C 0.82494 0.35026 0.66555 0.0
C181 C 0.83966 0.24498 0.69379 0.0
C182 C 0.78285 0.3857 0.64448 0.0
C183 C 0.71646 0.3562 0.6156 0.0
C184 C 0.80041 0.28453 0.65873 0.0
C185 C 0.6952 0.2909 0.60471 0.0
C186 C 0.81109 0.1793 0.69859 0.0
C187 C 0.93375 0.24025 0.77535 0.0
N188 N 0.73667 0.25709 0.6275 0.0
N189 N 0.90091 0.27298 0.73062 0.0
H190 H 0.825 0.94482 0.7919 0.0
H191 H 0.584 0.60181 0.70543 0.0
H192 H 0.77418 0.79462 0.95708 0.0
H193 H 0.60107 0.75538 0.54661 0.0
H194 H 0.64157 0.6769 0.80332 0.0
H195 H 0.72903 0.88434 0.70846 0.0
C196 C 0.79197 0.90026 0.81176 0.0
C197 C 0.80794 0.87371 0.88037 0.0
C198 C 0.63241 0.69456 0.74734 0.0
C199 C 0.69997 0.80411 0.7854 0.0
C200 C 0.60007 0.65151 0.6911 0.0
C201 C 0.58893 0.6724 0.61746 0.0
C202 C 0.65527 0.75914 0.72972 0.0
C203 C 0.60952 0.73742 0.60263 0.0
C204 C 0.73767 0.86546 0.7639 0.0
C205 C 0.76402 0.81593 0.90371 0.0
N206 N 0.64279 0.77861 0.65808 0.0
N207 N 0.7128 0.78246 0.85565 0.0
loop_
_geom_bond_atom_site_label_1
_geom_bond_atom_site_label_2
_geom_bond_distance
_geom_bond_site_symmetry_2
_ccdc_geom_bond_type
C0 O12 1.241 . S
C0 O13 1.280 . S
C1 O14 1.277 . S
C1 O15 1.245 . S
C2 O26 1.247 . S
C2 O28 1.289 . S
Mg3 O4 1.926 . S
Mg3 O13 1.984 . S
Mg3 O15 1.988 1_554 S
Mg3 O16 2.061 1_655 S
O4 Mg3 1.926 . S
O4 Mg5 1.986 1_544 S
O4 Mg6 1.917 1_655 S
Mg5 O4 1.986 1_566 S
Mg5 O12 2.041 1_566 S
Mg5 O14 2.040 1_565 S
Mg5 O20 2.040 1_556 S
Mg5 O28 2.239 . S
Mg6 O4 1.917 1_455 S
Mg6 O7 1.917 1_544 S
Mg6 O17 2.107 . S
Mg6 O19 2.079 1_445 S
Mg6 O28 2.106 1_444 S
Mg6 O29 2.079 1_554 S
O7 Mg6 1.917 1_566 S
O7 Mg8 1.926 . S
O7 Mg9 1.985 1_566 S
Mg8 O7 1.926 . S
Mg8 O22 1.984 . S
Mg8 O25 1.988 1_556 S
Mg8 O26 2.061 1_455 S
Mg9 O7 1.985 1_544 S
Mg9 O17 2.242 . S
Mg9 O21 2.038 1_544 S
Mg9 O23 2.037 1_545 S
Mg9 O30 2.043 1_554 S
C10 O16 1.247 . S
C10 O17 1.289 . S
C11 O29 1.245 . S
C11 O30 1.274 . S
O12 C0 1.241 . S
O12 Mg5 2.041 1_544 S
O13 C0 1.280 . S
O13 Mg3 1.984 . S
O14 C1 1.277 . S
O14 Mg5 2.040 1_545 S
O15 C1 1.245 . S
O15 Mg3 1.988 1_556 S
O16 Mg3 2.061 1_455 S
O16 C10 1.247 . S
O17 Mg6 2.107 . S
O17 Mg9 2.242 . S
O17 C10 1.289 . S
C18 O19 1.245 . S
C18 O20 1.274 . S
O19 Mg6 2.079 1_665 S
O19 C18 1.245 . S
O20 Mg5 2.040 1_554 S
O20 C18 1.274 . S
O21 Mg9 2.038 1_566 S
O21 C24 1.241 . S
O22 Mg8 1.984 . S
O22 C24 1.280 . S
O23 Mg9 2.037 1_565 S
O23 C27 1.277 . S
C24 O21 1.241 . S
C24 O22 1.280 . S
O25 Mg8 1.988 1_554 S
O25 C27 1.245 . S
O26 C2 1.247 . S
O26 Mg8 2.061 1_655 S
C27 O23 1.277 . S
C27 O25 1.245 . S
O28 C2 1.289 . S
O28 Mg5 2.239 . S
O28 Mg6 2.106 1_666 S
O29 Mg6 2.079 1_556 S
O29 C11 1.245 . S
O30 Mg9 2.043 1_556 S
O30 C11 1.274 . S
Co31 O34 2.042 . S
Co31 O41 2.264 . S
Co31 O60 2.286 . S
Co31 O61 2.069 . S
Co31 O63 2.015 . S
Co32 O34 2.122 . S
Co32 O40 2.073 . S
Co32 O41 2.327 . S
Co32 O42 1.976 . S
Co33 O34 2.087 . S
Co33 O36 2.087 . S
Co33 O43 2.111 . S
Co33 O44 2.143 . S
Co33 O48 2.111 . S
Co33 O62 2.143 . S
O34 Co31 2.042 . S
O34 Co32 2.122 . S
O34 Co33 2.087 . S
O34 H35 0.980 . S
H35 O34 0.980 . S
O36 Co33 2.087 . S
O36 Co37 2.042 . S
O36 Co38 2.122 . S
O36 H39 0.980 . S
Co37 O36 2.042 . S
Co37 O45 2.286 . S
Co37 O46 2.069 . S
Co37 O47 2.015 . S
Co37 O50 2.264 . S
Co38 O36 2.122 . S
Co38 O49 1.976 . S
Co38 O50 2.327 . S
Co38 O51 2.073 . S
H39 O36 0.980 . S
O40 Co32 2.073 . S
O40 C55 1.245 . S
O41 Co31 2.264 . S
O41 Co32 2.327 . S
O41 C55 1.257 . S
O42 Co32 1.976 . S
O42 C54 1.251 . S
O43 Co33 2.111 . S
O43 C54 1.274 . S
O44 Co33 2.143 . S
O44 C57 1.246 . S
O45 Co37 2.286 . S
O45 C56 1.259 . S
O46 Co37 2.069 . S
O46 C56 1.289 . S
O47 Co37 2.015 . S
O47 C57 1.257 . S
O48 Co33 2.111 . S
O48 C58 1.274 . S
O49 Co38 1.976 . S
O49 C58 1.251 . S
O50 Co37 2.264 . S
O50 Co38 2.327 . S
O50 C59 1.257 . S
O51 Co38 2.073 . S
O51 C59 1.245 . S
C52 O60 1.259 . S
C52 O61 1.289 . S
C53 O62 1.246 . S
C53 O63 1.257 . S
C54 O42 1.251 . S
C54 O43 1.274 . S
C55 O40 1.245 . S
C55 O41 1.257 . S
C56 O45 1.259 . S
C56 O46 1.289 . S
C57 O44 1.246 . S
C57 O47 1.257 . S
C58 O48 1.274 . S
C58 O49 1.251 . S
C59 O50 1.257 . S
C59 O51 1.245 . S
O60 Co31 2.286 . S
O60 C52 1.259 . S
O61 Co31 2.069 . S
O61 C52 1.289 . S
O62 Co33 2.143 . S
O62 C53 1.246 . S
O63 Co31 2.015 . S
O63 C53 1.257 . S
H64 C70 0.930 . S
H65 C74 0.930 . S
H66 C79 0.929 . S
H67 C77 0.929 . S
H68 C72 0.929 . S
H69 C78 0.929 . S
C70 H64 0.930 . S
C70 C71 1.367 . S
C70 C78 1.378 . S
C71 C70 1.367 . S
C71 C79 1.433 . S
C72 H68 0.929 . S
C72 C74 1.378 . S
C72 C76 1.350 . S
C73 C76 1.463 . S
C73 C78 1.350 . S
C73 N81 1.427 . S
C74 H65 0.930 . S
C74 C72 1.378 . S
C74 C75 1.367 . S
C75 C74 1.367 . S
C75 C77 1.433 . S
C76 C72 1.350 . S
C76 C73 1.463 . S
C76 N80 1.427 . S
C77 H67 0.929 . S
C77 C75 1.433 . S
C77 N80 1.384 . S
C78 H69 0.929 . S
C78 C70 1.378 . S
C78 C73 1.350 . S
C79 H66 0.929 . S
C79 C71 1.433 . S
C79 N81 1.384 . S
N80 C76 1.427 . S
N80 C77 1.384 . S
N81 C73 1.427 . S
N81 C79 1.384 . S
H82 C88 0.930 . S
H83 C92 0.930 . S
H84 C97 0.929 . S
H85 C95 0.929 . S
H86 C90 0.929 . S
H87 C96 0.929 . S
C88 H82 0.930 . S
C88 C89 1.367 . S
C88 C96 1.378 . S
C89 C88 1.367 . S
C89 C97 1.433 . S
C90 H86 0.929 . S
C90 C92 1.378 . S
C90 C94 1.350 . S
C91 C94 1.463 . S
C91 C96 1.350 . S
C91 N99 1.427 . S
C92 H83 0.930 . S
C92 C90 1.378 . S
C92 C93 1.367 . S
C93 C92 1.367 . S
C93 C95 1.433 . S
C94 C90 1.350 . S
C94 C91 1.463 . S
C94 N98 1.427 . S
C95 H85 0.929 . S
C95 C93 1.433 . S
C95 N98 1.384 . S
C96 H87 0.929 . S
C96 C88 1.378 . S
C96 C91 1.350 . S
C97 H84 0.929 . S
C97 C89 1.433 . S
C97 N99 1.384 . S
N98 C94 1.427 . S
N98 C95 1.384 . S
N99 C91 1.427 . S
N99 C97 1.384 . S
H100 C106 0.930 . S
H101 C110 0.930 . S
H102 C115 0.929 . S
H103 C113 0.929 . S
H104 C108 0.929 . S
H105 C114 0.929 . S
C106 H100 0.930 . S
C106 C107 1.367 . S
C106 C114 1.378 . S
C107 C106 1.367 . S
C107 C115 1.433 . S
C108 H104 0.929 . S
C108 C110 1.378 . S
C108 C112 1.350 . S
C109 C112 1.463 . S
C109 C114 1.350 . S
C109 N117 1.427 . S
C110 H101 0.930 . S
C110 C108 1.378 . S
C110 C111 1.367 . S
C111 C110 1.367 . S
C111 C113 1.433 . S
C112 C108 1.350 . S
C112 C109 1.463 . S
C112 N116 1.427 . S
C113 H103 0.929 . S
C113 C111 1.433 . S
C113 N116 1.384 . S
C114 H105 0.929 . S
C114 C106 1.378 . S
C114 C109 1.350 . S
C115 H102 0.929 . S
C115 C107 1.433 . S
C115 N117 1.384 . S
N116 C112 1.427 . S
N116 C113 1.384 . S
N117 C109 1.427 . S
N117 C115 1.384 . S
H118 C124 0.930 . S
H119 C128 0.930 . S
H120 C133 0.929 . S
H121 C131 0.929 . S
H122 C126 0.929 . S
H123 C132 0.929 . S
C124 H118 0.930 . S
C124 C125 1.367 . S
C124 C132 1.378 . S
C125 C124 1.367 . S
C125 C133 1.433 . S
C126 H122 0.929 . S
C126 C128 1.378 . S
C126 C130 1.350 . S
C127 C130 1.463 . S
C127 C132 1.350 . S
C127 N135 1.427 . S
C128 H119 0.930 . S
C128 C126 1.378 . S
C128 C129 1.367 . S
C129 C128 1.367 . S
C129 C131 1.433 . S
C130 C126 1.350 . S
C130 C127 1.463 . S
C130 N134 1.427 . S
C131 H121 0.929 . S
C131 C129 1.433 . S
C131 N134 1.384 . S
C132 H123 0.929 . S
C132 C124 1.378 . S
C132 C127 1.350 . S
C133 H120 0.929 . S
C133 C125 1.433 . S
C133 N135 1.384 . S
N134 C130 1.427 . S
N134 C131 1.384 . S
N135 C127 1.427 . S
N135 C133 1.384 . S
H136 C142 0.930 . S
H137 C146 0.930 . S
H138 C151 0.929 . S
H139 C149 0.929 . S
H140 C144 0.929 . S
H141 C150 0.929 . S
C142 H136 0.930 . S
C142 C143 1.367 . S
C142 C150 1.378 . S
C143 C142 1.367 . S
C143 C151 1.433 . S
C144 H140 0.929 . S
C144 C146 1.378 . S
C144 C148 1.350 . S
C145 C148 1.463 . S
C145 C150 1.350 . S
C145 N153 1.427 . S
C146 H137 0.930 . S
C146 C144 1.378 . S
C146 C147 1.367 . S
C147 C146 1.367 . S
C147 C149 1.433 . S
C148 C144 1.350 . S
C148 C145 1.463 . S
C148 N152 1.427 . S
C149 H139 0.929 . S
C149 C147 1.433 . S
C149 N152 1.384 . S
C150 H141 0.929 . S
C150 C142 1.378 . S
C150 C145 1.350 . S
C151 H138 0.929 . S
C151 C143 1.433 . S
C151 N153 1.384 . S
N152 C148 1.427 . S
N152 C149 1.384 . S
N153 C145 1.427 . S
N153 C151 1.384 . S
H154 C160 0.930 . S
H155 C164 0.930 . S
H156 C169 0.929 . S
H157 C167 0.929 . S
H158 C162 0.929 . S
H159 C168 0.929 . S
C160 H154 0.930 . S
C160 C161 1.367 . S
C160 C168 1.378 . S
C161 C160 1.367 . S
C161 C169 1.433 . S
C162 H158 0.929 . S
C162 C164 1.378 . S
C162 C166 1.350 . S
C163 C166 1.463 . S
C163 C168 1.350 . S
C163 N171 1.427 . S
C164 H155 0.930 . S
C164 C162 1.378 . S
C164 C165 1.367 . S
C165 C164 1.367 . S
C165 C167 1.433 . S
C166 C162 1.350 . S
C166 C163 1.463 . S
C166 N170 1.427 . S
C167 H157 0.929 . S
C167 C165 1.433 . S
C167 N170 1.384 . S
C168 H159 0.929 . S
C168 C160 1.378 . S
C168 C163 1.350 . S
C169 H156 0.929 . S
C169 C161 1.433 . S
C169 N171 1.384 . S
N170 C166 1.427 . S
N170 C167 1.384 . S
N171 C163 1.427 . S
N171 C169 1.384 . S
H172 C178 0.930 . S
H173 C182 0.930 . S
H174 C187 0.929 . S
H175 C185 0.929 . S
H176 C180 0.929 . S
H177 C186 0.929 . S
C178 H172 0.930 . S
C178 C179 1.367 . S
C178 C186 1.378 . S
C179 C178 1.367 . S
C179 C187 1.433 . S
C180 H176 0.929 . S
C180 C182 1.378 . S
C180 C184 1.350 . S
C181 C184 1.463 . S
C181 C186 1.350 . S
C181 N189 1.427 . S
C182 H173 0.930 . S
C182 C180 1.378 . S
C182 C183 1.367 . S
C183 C182 1.367 . S
C183 C185 1.433 . S
C184 C180 1.350 . S
C184 C181 1.463 . S
C184 N188 1.427 . S
C185 H175 0.929 . S
C185 C183 1.433 . S
C185 N188 1.384 . S
C186 H177 0.929 . S
C186 C178 1.378 . S
C186 C181 1.350 . S
C187 H174 0.929 . S
C187 C179 1.433 . S
C187 N189 1.384 . S
N188 C184 1.427 . S
N188 C185 1.384 . S
N189 C181 1.427 . S
N189 C187 1.384 . S
H190 C196 0.930 . S
H191 C200 0.930 . S
H192 C205 0.929 . S
H193 C203 0.929 . S
H194 C198 0.929 . S
H195 C204 0.929 . S
C196 H190 0.930 . S
C196 C197 1.367 . S
C196 C204 1.378 . S
C197 C196 1.367 . S
C197 C205 1.433 . S
C198 H194 0.929 . S
C198 C200 1.378 . S
C198 C202 1.350 . S
C199 C202 1.463 . S
C199 C204 1.350 . S
C199 N207 1.427 . S
C200 H191 0.930 . S
C200 C198 1.378 . S
C200 C201 1.367 . S
C201 C200 1.367 . S
C201 C203 1.433 . S
C202 C198 1.350 . S
C202 C199 1.463 . S
C202 N206 1.427 . S
C203 H193 0.929 . S
C203 C201 1.433 . S
C203 N206 1.384 . S
C204 H195 0.929 . S
C204 C196 1.378 . S
C204 C199 1.350 . S
C205 H192 0.929 . S
C205 C197 1.433 . S
C205 N207 1.384 . S
N206 C202 1.427 . S
N206 C203 1.384 . S
N207 C199 1.427 . S
N207 C205 1.384 . S
C71 C10 1.149 . S
C75 C53 1.173 . S
C89 C0 1.630 . S
C93 C52 1.690 . S
C107 C18 1.489 . S
C111 C58 1.472 . S
C125 C27 1.587 . S
C129 C59 1.569 . S
C143 C24 1.630 . S
C147 C56 1.691 . S
C165 C54 1.455 . S
C161 C11 1.504 . S
C179 C1 1.596 . S
C183 C55 1.560 . S
C201 C57 1.174 . S
C197 C2 1.170 . S
