# Generated by pormake.
# Topology anh, (6,3)-cn, num edge types: 1
# Building blocks:
#     Node 0, Type 0, BuildingBlock: MIFKUJ_clean_sbu_0, # of connection points: 6
#     Node 1, Type 0, BuildingBlock: MIFKUJ_clean_sbu_0, # of connection points: 6
#     Node 2, Type 0, BuildingBlock: MIFKUJ_clean_sbu_0, # of connection points: 6
#     Node 3, Type 1, BuildingBlock: OLANEW_clean_sbu_2, # of connection points: 3
#     Node 4, Type 1, BuildingBlock: OLANEW_clean_sbu_2, # of connection points: 3
#     Node 5, Type 1, BuildingBlock: OLANEW_clean_sbu_2, # of connection points: 3
#     Node 6, Type 1, BuildingBlock: OLANEW_clean_sbu_2, # of connection points: 3
#     Node 7, Type 1, BuildingBlock: OLANEW_clean_sbu_2, # of connection points: 3
#     Node 8, Type 1, BuildingBlock: OLANEW_clean_sbu_2, # of connection points: 3
#     Edge 9, Type (0, 1), None
#     Edge 10, Type (0, 1), None
#     Edge 11, Type (0, 1), None
#     Edge 12, Type (0, 1), None
#     Edge 13, Type (0, 1), None
#     Edge 14, Type (0, 1), None
#     Edge 15, Type (0, 1), None
#     Edge 16, Type (0, 1), None
#     Edge 17, Type (0, 1), None
#     Edge 18, Type (0, 1), None
#     Edge 19, Type (0, 1), None
#     Edge 20, Type (0, 1), None
#     Edge 21, Type (0, 1), None
#     Edge 22, Type (0, 1), None
#     Edge 23, Type (0, 1), None
#     Edge 24, Type (0, 1), None
#     Edge 25, Type (0, 1), None
#     Edge 26, Type (0, 1), None
# Relax obj value: 0.068
# Max RMSD: 0.139
# Mean RMSD: 0.124
data_MOF--net-anh--node1-MIFKUJ_clean_sbu_0--node2-OLANEW_clean_sbu_2--edge1-none
_symmetry_space_group_name_H-M    P1
_symmetry_Int_Tables_number       1
_symmetry_cell_setting            triclinic
loop_
_symmetry_equiv_pos_as_xyz
'x, y, z'
_cell_length_a     18.488156
_cell_length_b     19.64391
_cell_length_c     20.274234
_cell_angle_alpha  95.277783
_cell_angle_beta   87.821765
_cell_angle_gamma 121.60411
loop_
_atom_site_label
_atom_site_type_symbol
_atom_site_fract_x
_atom_site_fract_y
_atom_site_fract_z
_atom_type_partial_charge
Zn0 Zn 0.03971 0.56089 0.16911 0.0
Zn1 Zn 0.85584 0.41009 0.14398 0.0
C2 C 0.12324 0.47194 0.19284 0.0
O3 O 0.14914 0.51714 0.24902 0.0
C4 C 0.72931 0.44415 0.12277 0.0
O5 O 0.70702 0.38062 0.08147 0.0
O6 O 0.14863 0.66459 0.19574 0.0
O7 O -0.00072 0.5665 0.08109 0.0
O8 O 0.91952 0.43501 0.05614 0.0
C9 C 0.22201 0.67823 0.17994 0.0
O10 O 0.22998 0.62783 0.13774 0.0
O11 O 0.07205 0.4761 0.15554 0.0
C12 C 0.7134 0.2926 0.19946 0.0
O13 O 0.74055 0.35723 0.2404 0.0
O14 O 0.7554 0.29586 0.14716 0.0
O15 O 0.91931 0.41925 0.22656 0.0
O16 O -0.03694 0.5459 0.24606 0.0
O17 O 0.79888 0.47611 0.15525 0.0
C18 C -0.03309 0.50611 0.03842 0.0
C19 C 0.93728 0.47865 0.26749 0.0
Zn20 Zn 0.51423 0.07985 0.52255 0.0
Zn21 Zn 0.41274 0.8387 0.51185 0.0
C22 C 0.69245 0.18019 0.52834 0.0
O23 O 0.6721 0.20791 0.5827 0.0
C24 C 0.249 0.70305 0.48811 0.0
O25 O 0.29514 0.67819 0.45607 0.0
O26 O 0.49327 0.16889 0.50881 0.0
O27 O 0.43505 -0.02488 0.47296 0.0
O28 O 0.44366 0.87901 0.41975 0.0
C29 C 0.53842 0.21712 0.46577 0.0
O30 O 0.5893 0.20308 0.42822 0.0
O31 O 0.63441 0.11934 0.49431 0.0
C32 C 0.41394 0.71885 0.57542 0.0
O33 O 0.36249 0.73154 0.61361 0.0
O34 O 0.45024 0.76219 0.52763 0.0
O35 O 0.46166 0.93069 0.5858 0.0
O36 O 0.51048 0.05772 0.6188 0.0
O37 O 0.28485 0.77406 0.51587 0.0
C38 C 0.45176 0.94715 0.41971 0.0
C39 C 0.49201 -0.01193 0.63146 0.0
Zn40 Zn 0.56017 0.47333 0.8244 0.0
Zn41 Zn 0.42342 0.51818 0.80368 0.0
C42 C 0.45259 0.30237 0.83894 0.0
O43 O 0.48949 0.32184 0.8975 0.0
C44 C 0.54676 0.67883 0.77073 0.0
O45 O 0.52786 0.64496 0.71001 0.0
O46 O 0.66168 0.46961 0.85188 0.0
O47 O 0.58469 0.52242 0.73797 0.0
O48 O 0.4479 0.47137 0.71913 0.0
C49 C 0.67429 0.41269 0.8353 0.0
O50 O 0.62413 0.35415 0.79171 0.0
O51 O 0.46554 0.35774 0.80358 0.0
C52 C 0.31486 0.57528 0.83129 0.0
O53 O 0.37635 0.61915 0.87476 0.0
O54 O 0.3178 0.52235 0.79209 0.0
O55 O 0.40177 0.46219 0.88706 0.0
O56 O 0.5389 0.5277 0.90499 0.0
O57 O 0.51545 0.63579 0.81925 0.0
C58 C 0.5223 0.49416 0.69792 0.0
C59 C 0.46407 0.49413 0.92715 0.0
O60 O 0.47524 0.05457 0.35896 0.0
Cd61 Cd 0.4768 0.09209 0.24636 0.0
O62 O 0.48635 0.95997 0.30481 0.0
Cd63 Cd 0.4627 0.8401 0.28264 0.0
O64 O 0.36387 0.74196 0.21979 0.0
C65 C 0.29647 0.74383 0.21612 0.0
O66 O 0.29109 0.80085 0.25079 0.0
C67 C 0.47625 -0.00931 0.35958 0.0
C68 C 0.6316 0.22167 0.21291 0.0
O69 O 0.57845 0.23018 0.24957 0.0
O70 O 0.61227 0.1508 0.19093 0.0
O71 O 0.60064 0.48465 0.60542 0.0
Cd72 Cd 0.57999 0.45014 0.48687 0.0
O73 O 0.47749 0.46892 0.58563 0.0
Cd74 Cd 0.37586 0.48856 0.61557 0.0
O75 O 0.36584 0.59362 0.61741 0.0
C76 C 0.41913 0.64811 0.58196 0.0
O77 O 0.47388 0.63715 0.54678 0.0
C78 C 0.53428 0.48238 0.62695 0.0
C79 C 0.54897 0.29623 0.46811 0.0
O80 O 0.62078 0.35662 0.45352 0.0
O81 O 0.48987 0.30785 0.48923 0.0
O82 O 0.05869 0.5877 0.95708 0.0
Cd83 Cd 0.10761 0.60982 0.84333 0.0
O84 O -0.03887 0.46544 0.9226 0.0
Cd85 Cd 0.84122 0.35308 0.92598 0.0
O86 O 0.73762 0.34332 0.87034 0.0
C87 C 0.74014 0.40916 0.8697 0.0
O88 O 0.79941 0.47339 0.90404 0.0
C89 C -0.00382 0.51972 0.96982 0.0
C90 C 0.24331 0.58721 0.83082 0.0
O91 O 0.25247 0.65349 0.85608 0.0
O92 O 0.16985 0.53116 0.80904 0.0
O93 O 0.94341 0.52706 0.37937 0.0
Cd94 Cd -0.01664 0.54072 0.49404 0.0
O95 O 0.94045 0.41325 0.35826 0.0
Cd96 Cd 0.92543 0.38322 0.4606 0.0
O97 O 0.82514 0.30134 0.52385 0.0
C98 C 0.77557 0.23016 0.49874 0.0
O99 O 0.79142 0.20806 0.43955 0.0
C100 C 0.93956 0.47231 0.33838 0.0
C101 C 0.15745 0.64762 0.49318 0.0
O102 O 0.12534 0.57233 0.47871 0.0
O103 O 0.1078 0.67283 0.51133 0.0
O104 O 0.55765 0.93865 0.69276 0.0
Cd105 Cd 0.63115 0.92531 0.78461 0.0
O106 O 0.51366 0.01073 0.74932 0.0
Cd107 Cd 0.45567 0.08348 0.76981 0.0
O108 O 0.45112 0.18122 0.82779 0.0
C109 C 0.42463 0.22274 0.80542 0.0
O110 O 0.3928 0.20438 0.74505 0.0
C111 C 0.51972 -0.02285 0.69445 0.0
C112 C 0.58389 0.76547 0.78109 0.0
O113 O 0.5536 0.79479 0.82492 0.0
O114 O 0.6384 0.81198 0.74053 0.0
O115 O 0.51597 0.52015 0.03633 0.0
Cd116 Cd 0.54551 0.51238 0.15018 0.0
O117 O 0.37587 0.44883 0.02091 0.0
Cd118 Cd 0.33028 0.43804 0.12311 0.0
O119 O 0.24395 0.45882 0.18727 0.0
C120 C 0.17099 0.43596 0.16392 0.0
O121 O 0.14801 0.39523 0.10562 0.0
C122 C 0.45092 0.48834 0.99857 0.0
C123 C 0.66798 0.46952 0.13625 0.0
O124 O 0.58861 0.41809 0.12763 0.0
O125 O 0.69115 0.54224 0.15504 0.0
loop_
_geom_bond_atom_site_label_1
_geom_bond_atom_site_label_2
_geom_bond_distance
_geom_bond_site_symmetry_2
_ccdc_geom_bond_type
Zn0 O6 1.969 . S
Zn0 O7 1.965 . S
Zn0 O11 2.024 . S
Zn0 O16 1.969 . S
Zn1 O8 1.969 . S
Zn1 O14 1.969 . S
Zn1 O15 1.965 . S
Zn1 O17 2.024 . S
C2 O3 1.229 . S
C2 O11 1.058 . S
O3 C2 1.229 . S
C4 O5 1.229 . S
C4 O17 1.058 . S
O5 C4 1.229 . S
O6 Zn0 1.969 . S
O6 C9 1.267 . S
O7 Zn0 1.965 . S
O7 C18 1.260 1_455 S
O8 Zn1 1.969 . S
O8 C18 1.258 . S
C9 O6 1.267 . S
C9 O10 1.228 . S
O10 C9 1.228 . S
O11 Zn0 2.024 . S
O11 C2 1.058 . S
C12 O13 1.228 . S
C12 O14 1.267 . S
O13 C12 1.228 . S
O14 Zn1 1.969 . S
O14 C12 1.267 . S
O15 Zn1 1.965 . S
O15 C19 1.260 1_655 S
O16 Zn0 1.969 . S
O16 C19 1.258 . S
O17 Zn1 2.024 . S
O17 C4 1.058 . S
C18 O7 1.260 1_655 S
C18 O8 1.258 . S
C19 O15 1.260 1_455 S
C19 O16 1.258 . S
Zn20 O26 1.969 . S
Zn20 O27 1.965 . S
Zn20 O31 2.024 . S
Zn20 O36 1.969 . S
Zn21 O28 1.969 . S
Zn21 O34 1.969 . S
Zn21 O35 1.965 . S
Zn21 O37 2.024 . S
C22 O23 1.229 . S
C22 O31 1.058 . S
O23 C22 1.229 . S
C24 O25 1.229 . S
C24 O37 1.058 . S
O25 C24 1.229 . S
O26 Zn20 1.969 . S
O26 C29 1.267 . S
O27 Zn20 1.965 . S
O27 C38 1.260 1_545 S
O28 Zn21 1.969 . S
O28 C38 1.258 . S
C29 O26 1.267 . S
C29 O30 1.228 . S
O30 C29 1.228 . S
O31 Zn20 2.024 . S
O31 C22 1.058 . S
C32 O33 1.228 . S
C32 O34 1.267 . S
O33 C32 1.228 . S
O34 Zn21 1.969 . S
O34 C32 1.267 . S
O35 Zn21 1.965 . S
O35 C39 1.260 1_565 S
O36 Zn20 1.969 . S
O36 C39 1.258 . S
O37 Zn21 2.024 . S
O37 C24 1.058 . S
C38 O27 1.260 1_565 S
C38 O28 1.258 . S
C39 O35 1.260 1_545 S
C39 O36 1.258 . S
Zn40 O46 1.969 . S
Zn40 O47 1.965 . S
Zn40 O51 2.024 . S
Zn40 O56 1.969 . S
Zn41 O48 1.969 . S
Zn41 O54 1.969 . S
Zn41 O55 1.965 . S
Zn41 O57 2.024 . S
C42 O43 1.229 . S
C42 O51 1.058 . S
O43 C42 1.229 . S
C44 O45 1.229 . S
C44 O57 1.058 . S
O45 C44 1.229 . S
O46 Zn40 1.969 . S
O46 C49 1.267 . S
O47 Zn40 1.965 . S
O47 C58 1.260 . S
O48 Zn41 1.969 . S
O48 C58 1.258 . S
C49 O46 1.267 . S
C49 O50 1.228 . S
O50 C49 1.228 . S
O51 Zn40 2.024 . S
O51 C42 1.058 . S
C52 O53 1.228 . S
C52 O54 1.267 . S
O53 C52 1.228 . S
O54 Zn41 1.969 . S
O54 C52 1.267 . S
O55 Zn41 1.965 . S
O55 C59 1.260 . S
O56 Zn40 1.969 . S
O56 C59 1.258 . S
O57 Zn41 2.024 . S
O57 C44 1.058 . S
C58 O47 1.260 . S
C58 O48 1.258 . S
C59 O55 1.260 . S
C59 O56 1.258 . S
O60 Cd61 2.300 . S
O60 C67 1.275 . S
Cd61 O60 2.300 . S
Cd61 O69 2.381 . S
Cd61 O70 2.378 . S
O62 Cd63 2.385 . S
O62 C67 1.255 1_565 S
Cd63 O62 2.385 . S
Cd63 O64 2.317 . S
O64 Cd63 2.317 . S
O64 C65 1.232 . S
C65 O64 1.232 . S
C65 O66 1.218 . S
O66 C65 1.218 . S
C67 O60 1.275 . S
C67 O62 1.255 1_545 S
C68 O69 1.258 . S
C68 O70 1.256 . S
O69 Cd61 2.381 . S
O69 C68 1.258 . S
O70 Cd61 2.378 . S
O70 C68 1.256 . S
O71 Cd72 2.300 . S
O71 C78 1.275 . S
Cd72 O71 2.300 . S
Cd72 O80 2.381 . S
Cd72 O81 2.378 . S
O73 Cd74 2.385 . S
O73 C78 1.255 . S
Cd74 O73 2.385 . S
Cd74 O75 2.317 . S
O75 Cd74 2.317 . S
O75 C76 1.232 . S
C76 O75 1.232 . S
C76 O77 1.218 . S
O77 C76 1.218 . S
C78 O71 1.275 . S
C78 O73 1.255 . S
C79 O80 1.258 . S
C79 O81 1.256 . S
O80 Cd72 2.381 . S
O80 C79 1.258 . S
O81 Cd72 2.378 . S
O81 C79 1.256 . S
O82 Cd83 2.300 . S
O82 C89 1.275 1_556 S
Cd83 O82 2.300 . S
Cd83 O91 2.381 . S
Cd83 O92 2.378 . S
O84 Cd85 2.385 . S
O84 C89 1.256 1_656 S
Cd85 O84 2.385 . S
Cd85 O86 2.317 . S
O86 Cd85 2.317 . S
O86 C87 1.232 . S
C87 O86 1.232 . S
C87 O88 1.218 . S
O88 C87 1.218 . S
C89 O82 1.275 1_554 S
C89 O84 1.256 1_454 S
C90 O91 1.258 . S
C90 O92 1.256 . S
O91 Cd83 2.381 . S
O91 C90 1.258 . S
O92 Cd83 2.378 . S
O92 C90 1.256 . S
O93 Cd94 2.300 . S
O93 C100 1.275 1_455 S
Cd94 O93 2.300 . S
Cd94 O102 2.381 . S
Cd94 O103 2.378 . S
O95 Cd96 2.385 . S
O95 C100 1.255 . S
Cd96 O95 2.385 . S
Cd96 O97 2.317 . S
O97 Cd96 2.317 . S
O97 C98 1.232 . S
C98 O97 1.232 . S
C98 O99 1.218 . S
O99 C98 1.218 . S
C100 O93 1.275 1_655 S
C100 O95 1.255 . S
C101 O102 1.258 . S
C101 O103 1.256 . S
O102 Cd94 2.381 . S
O102 C101 1.258 . S
O103 Cd94 2.378 . S
O103 C101 1.256 . S
O104 Cd105 2.300 . S
O104 C111 1.275 1_565 S
Cd105 O104 2.300 . S
Cd105 O113 2.381 . S
Cd105 O114 2.378 . S
O106 Cd107 2.385 . S
O106 C111 1.255 . S
Cd107 O106 2.385 . S
Cd107 O108 2.317 . S
O108 Cd107 2.317 . S
O108 C109 1.232 . S
C109 O108 1.232 . S
C109 O110 1.218 . S
O110 C109 1.218 . S
C111 O104 1.275 1_545 S
C111 O106 1.255 . S
C112 O113 1.258 . S
C112 O114 1.256 . S
O113 Cd105 2.381 . S
O113 C112 1.258 . S
O114 Cd105 2.378 . S
O114 C112 1.256 . S
O115 Cd116 2.300 . S
O115 C122 1.275 1_554 S
Cd116 O115 2.300 . S
Cd116 O124 2.381 . S
Cd116 O125 2.378 . S
O117 Cd118 2.385 . S
O117 C122 1.255 1_554 S
Cd118 O117 2.385 . S
Cd118 O119 2.317 . S
O119 Cd118 2.317 . S
O119 C120 1.232 . S
C120 O119 1.232 . S
C120 O121 1.218 . S
O121 C120 1.218 . S
C122 O115 1.275 1_556 S
C122 O117 1.255 1_556 S
C123 O124 1.258 . S
C123 O125 1.256 . S
O124 Cd116 2.381 . S
O124 C123 1.258 . S
O125 Cd116 2.378 . S
O125 C123 1.256 . S
C2 C120 1.329 . S
C22 C98 1.401 . S
C44 C112 1.495 . S
C4 C123 1.633 . S
C101 C24 1.695 . S
C109 C42 1.366 . S
C32 C76 0.863 . S
C49 C87 1.098 . S
C9 C65 1.078 . S
C79 C29 0.998 . S
C90 C52 1.086 . S
C12 C68 1.074 . S
C89 C18 1.288 1_455 S
C38 C67 1.273 1_565 S
C58 C78 1.281 . S
C111 C39 1.458 . S
C122 C59 1.499 . S
C19 C100 1.495 1_455 S
