# Generated by pormake.
# Topology bcu-b, (8,8)-cn, num edge types: 1
# Building blocks:
#     Node 0, Type 0, BuildingBlock: VETTIZ_charged_sbu_0, # of connection points: 8
#     Node 1, Type 1, BuildingBlock: TAGTUT_clean_sbu_1, # of connection points: 8
#     Edge 2, Type (0, 1), BuildingBlock: FUNLAD_clean_linker_0, # of connection points: 2
#     Edge 3, Type (0, 1), BuildingBlock: FUNLAD_clean_linker_0, # of connection points: 2
#     Edge 4, Type (0, 1), BuildingBlock: FUNLAD_clean_linker_0, # of connection points: 2
#     Edge 5, Type (0, 1), BuildingBlock: FUNLAD_clean_linker_0, # of connection points: 2
#     Edge 6, Type (0, 1), BuildingBlock: FUNLAD_clean_linker_0, # of connection points: 2
#     Edge 7, Type (0, 1), BuildingBlock: FUNLAD_clean_linker_0, # of connection points: 2
#     Edge 8, Type (0, 1), BuildingBlock: FUNLAD_clean_linker_0, # of connection points: 2
#     Edge 9, Type (0, 1), BuildingBlock: FUNLAD_clean_linker_0, # of connection points: 2
# Relax obj value: 0.028
# Max RMSD: 0.121
# Mean RMSD: 0.086
data_MOF--net-bcu-b--node1-VETTIZ_charged_sbu_0--node2-TAGTUT_clean_sbu_1--edge1-FUNLAD_clean_linker_0
_symmetry_space_group_name_H-M    P1
_symmetry_Int_Tables_number       1
_symmetry_cell_setting            triclinic
loop_
_symmetry_equiv_pos_as_xyz
'x, y, z'
_cell_length_a     22.639414
_cell_length_b     21.299633
_cell_length_c     24.066775
_cell_angle_alpha  89.893521
_cell_angle_beta   91.106528
_cell_angle_gamma 98.748862
loop_
_atom_site_label
_atom_site_type_symbol
_atom_site_fract_x
_atom_site_fract_y
_atom_site_fract_z
_atom_type_partial_charge
Fe0 Fe 0.01975 0.8751 -0.00307 0.0
O1 O 0.03434 0.96805 -0.00889 0.0
Fe2 Fe 0.99225 1.0109 0.92575 0.0
Fe3 Fe 0.01939 0.02594 0.05292 0.0
O4 O 0.0328 0.96721 0.98566 0.0
O5 O 0.97641 0.06864 -0.01245 0.0
O6 O 0.97826 0.06962 -0.00673 0.0
Fe7 Fe 0.99464 0.16211 0.98237 0.0
C8 C 0.93181 0.9115 0.08272 0.0
O9 O 0.09235 0.89315 0.05041 0.0
O10 O 0.06715 0.97227 0.10693 0.0
O11 O 0.04889 0.16297 0.91415 0.0
O12 O 0.07263 0.06564 0.9092 0.0
O13 O 0.01684 0.94489 0.86889 0.0
O14 O 0.06471 0.87722 0.92286 0.0
O15 O 0.09996 0.08163 0.03857 0.0
O16 O 0.06931 0.17545 0.03311 0.0
C17 C 0.05092 0.90103 0.87532 0.0
O18 O 0.92407 0.14718 0.92717 0.0
O19 O 0.94553 0.0656 0.87138 0.0
O20 O 0.96678 0.87404 0.06621 0.0
O21 O 0.93987 0.97038 0.07098 0.0
C22 C 0.09935 0.92836 0.09474 0.0
C23 C 0.10921 0.14147 0.04511 0.0
C24 C 0.96322 0.13878 0.10307 0.0
O25 O 0.99604 0.09366 0.10995 0.0
O26 O 0.9484 0.1607 0.05515 0.0
C27 C 0.08267 0.12441 0.89774 0.0
O28 O 0.91165 0.95334 0.93766 0.0
O29 O 0.94368 0.85993 0.94815 0.0
C30 C 0.91697 0.113 0.88229 0.0
C31 C 0.90342 0.89289 0.93428 0.0
C32 C 0.33494 0.64418 0.5385 0.0
C33 C 0.42193 0.6525 0.38363 0.0
C34 C 0.43239 0.40305 0.41291 0.0
Mg35 Mg 0.46795 0.65477 0.50328 0.0
O36 O 0.44886 0.56665 0.51076 0.0
Mg37 Mg 0.37854 0.52375 0.46569 0.0
Mg38 Mg 0.51043 0.51355 0.49049 0.0
O39 O 0.57135 0.46002 0.46981 0.0
Mg40 Mg 0.54932 0.37213 0.4767 0.0
Mg41 Mg 0.64042 0.50071 0.51707 0.0
C42 C 0.58834 0.62602 0.56442 0.0
C43 C 0.61401 0.5988 0.41839 0.0
O44 O 0.32281 0.59006 0.51358 0.0
O45 O 0.3878 0.67607 0.54047 0.0
O46 O 0.39058 0.59937 0.3961 0.0
O47 O 0.46184 0.6804 0.41707 0.0
O48 O 0.55381 0.66544 0.54804 0.0
O49 O 0.57655 0.566 0.55408 0.0
C50 C 0.40843 0.42628 0.56328 0.0
O51 O 0.4647 0.44242 0.55561 0.0
O52 O 0.36919 0.45037 0.53471 0.0
O53 O 0.69629 0.43037 0.47228 0.0
O54 O 0.62947 0.34623 0.44452 0.0
O55 O 0.62177 0.42613 0.5875 0.0
C56 C 0.68316 0.37557 0.44849 0.0
O57 O 0.55012 0.34671 0.56262 0.0
O58 O 0.46616 0.36258 0.42837 0.0
C59 C 0.58775 0.37398 0.59833 0.0
O60 O 0.44397 0.46204 0.4267 0.0
O61 O 0.55747 0.5843 0.42599 0.0
O62 O 0.65261 0.57346 0.44701 0.0
C63 C 0.17356 0.23781 0.08314 0.0
C64 C 0.1618 0.17128 0.07803 0.0
C65 C 0.214 0.26638 0.12337 0.0
C66 C 0.24343 0.22889 0.15948 0.0
C67 C 0.23568 0.16285 0.15115 0.0
C68 C 0.19507 0.13416 0.1109 0.0
C69 C 0.2807 0.25649 0.20734 0.0
C70 C 0.27228 0.31043 0.23337 0.0
C71 C 0.30723 0.33419 0.28376 0.0
C72 C 0.32139 0.39988 0.29318 0.0
C73 C 0.35913 0.42308 0.33773 0.0
C74 C 0.38273 0.38069 0.37367 0.0
H75 H 0.31435 0.24117 0.31807 0.0
C76 C 0.36432 0.31507 0.36677 0.0
C77 C 0.3269 0.29206 0.32243 0.0
H78 H 0.38066 0.28114 0.39448 0.0
H79 H 0.1495 0.26787 0.05767 0.0
H80 H 0.22094 0.31763 0.12672 0.0
H81 H 0.25873 0.133 0.1778 0.0
H82 H 0.18728 0.08281 0.10791 0.0
H83 H 0.3141 0.22927 0.2235 0.0
H84 H 0.23954 0.33855 0.21749 0.0
H85 H 0.30557 0.43325 0.26457 0.0
H86 H 0.37235 0.47391 0.3421 0.0
C87 C 0.94052 0.144 0.20549 0.0
C88 C 0.94462 0.17203 0.15248 0.0
C89 C 0.92104 0.17661 0.25074 0.0
C90 C 0.9059 0.23808 0.2437 0.0
C91 C 0.91234 0.26654 0.19122 0.0
C92 C 0.93095 0.23399 0.14627 0.0
C93 C 0.88135 0.27401 0.28865 0.0
C94 C 0.85027 0.24617 0.33155 0.0
C95 C 0.8128 0.28069 0.36734 0.0
C96 C 0.76091 0.24626 0.38948 0.0
C97 C 0.72014 0.27724 0.41721 0.0
C98 C 0.73057 0.34358 0.4244 0.0
H99 H 0.8657 0.3747 0.36221 0.0
C100 C 0.78443 0.37788 0.40562 0.0
C101 C 0.82518 0.34677 0.37713 0.0
H102 H 0.794 0.42891 0.41106 0.0
H103 H 0.95134 0.09665 0.21176 0.0
H104 H 0.91806 0.15362 0.29092 0.0
H105 H 0.90151 0.31385 0.18448 0.0
H106 H 0.93466 0.25782 0.10641 0.0
H107 H 0.88226 0.32457 0.28186 0.0
H108 H 0.84501 0.19488 0.33585 0.0
H109 H 0.75045 0.19537 0.38323 0.0
H110 H 0.6796 0.2491 0.43207 0.0
C111 C 0.85853 0.82158 0.11913 0.0
C112 C 0.88281 0.88636 0.12029 0.0
C113 C 0.81554 0.79666 0.15748 0.0
C114 C 0.79653 0.83594 0.19831 0.0
C115 C 0.81999 0.90087 0.1988 0.0
C116 C 0.86208 0.92607 0.1597 0.0
C117 C 0.75816 0.809 0.24456 0.0
C118 C 0.71616 0.75719 0.23912 0.0
C119 C 0.68693 0.72337 0.28776 0.0
C120 C 0.62848 0.69014 0.28254 0.0
C121 C 0.60306 0.65205 0.32615 0.0
C122 C 0.63652 0.64511 0.37496 0.0
H123 H 0.76476 0.74226 0.34278 0.0
C124 C 0.69436 0.67963 0.38059 0.0
C125 C 0.71917 0.71853 0.33769 0.0
H126 H 0.72114 0.67548 0.41784 0.0
H127 H 0.87354 0.78988 0.08912 0.0
H128 H 0.79947 0.74613 0.1567 0.0
H129 H 0.80658 0.93197 0.23021 0.0
H130 H 0.88019 0.97614 0.16184 0.0
H131 H 0.76601 0.8319 0.28492 0.0
H132 H 0.704 0.73772 0.19806 0.0
H133 H 0.60291 0.69271 0.24431 0.0
H134 H 0.55841 0.62587 0.32065 0.0
C135 C 0.19863 0.89558 0.11336 0.0
C136 C 0.14636 0.91426 0.13419 0.0
C137 C 0.23875 0.87041 0.14856 0.0
C138 C 0.2272 0.86284 0.20553 0.0
C139 C 0.17649 0.88464 0.22685 0.0
C140 C 0.13668 0.91085 0.19157 0.0
C141 C 0.26245 0.82508 0.24179 0.0
C142 C 0.31934 0.81695 0.23217 0.0
C143 C 0.34902 0.77146 0.26528 0.0
C144 C 0.40828 0.7882 0.28441 0.0
C145 C 0.43429 0.74751 0.32008 0.0
C146 C 0.40182 0.68872 0.33595 0.0
H147 H 0.27307 0.69612 0.26226 0.0
C148 C 0.34442 0.66997 0.31251 0.0
C149 C 0.31815 0.71108 0.27803 0.0
H150 H 0.31804 0.62502 0.32343 0.0
H151 H 0.20722 0.89789 0.0692 0.0
H152 H 0.27656 0.85326 0.13026 0.0
H153 H 0.1664 0.87907 0.27057 0.0
H154 H 0.09653 0.92448 0.2086 0.0
H155 H 0.23985 0.80137 0.27728 0.0
H156 H 0.34503 0.84474 0.20055 0.0
H157 H 0.43333 0.83407 0.2741 0.0
H158 H 0.47868 0.76329 0.33714 0.0
C159 C 0.09622 0.81604 0.82787 0.0
C160 C 0.07511 0.87477 0.82506 0.0
C161 C 0.12097 0.79148 0.78158 0.0
C162 C 0.12533 0.82505 0.7311 0.0
C163 C 0.10402 0.88361 0.72806 0.0
C164 C 0.07859 0.908 0.7744 0.0
C165 C 0.15699 0.80287 0.68307 0.0
C166 C 0.16134 0.74119 0.67436 0.0
C167 C 0.20233 0.71936 0.63352 0.0
C168 C 0.1922 0.65582 0.6155 0.0
C169 C 0.23395 0.63169 0.58261 0.0
C170 C 0.28723 0.67048 0.56792 0.0
H171 H 0.26516 0.80737 0.63114 0.0
C172 C 0.2965 0.73451 0.58467 0.0
C173 C 0.25468 0.75868 0.61705 0.0
H174 H 0.33696 0.76585 0.57397 0.0
H175 H 0.09417 0.789 0.86614 0.0
H176 H 0.13857 0.74725 0.78627 0.0
H177 H 0.1076 0.91086 0.68989 0.0
H178 H 0.06305 0.95352 0.7709 0.0
H179 H 0.17826 0.83884 0.65485 0.0
H180 H 0.13508 0.70491 0.69919 0.0
H181 H 0.15253 0.62431 0.62801 0.0
H182 H 0.22552 0.58212 0.57056 0.0
C183 C 0.15761 0.21284 0.86091 0.0
C184 C 0.13304 0.14812 0.86107 0.0
C185 C 0.20225 0.23605 0.82349 0.0
C186 C 0.22275 0.19507 0.78495 0.0
C187 C 0.19896 0.13025 0.78581 0.0
C188 C 0.15516 0.1068 0.82394 0.0
C189 C 0.26307 0.2199 0.73932 0.0
C190 C 0.30451 0.27231 0.74405 0.0
C191 C 0.33516 0.30409 0.69512 0.0
C192 C 0.39259 0.33961 0.70128 0.0
C193 C 0.41864 0.37654 0.65723 0.0
C194 C 0.38674 0.37995 0.60693 0.0
H195 H 0.26002 0.27964 0.63767 0.0
C196 C 0.33021 0.34281 0.6003 0.0
C197 C 0.30483 0.30513 0.64368 0.0
H198 H 0.30465 0.34434 0.56191 0.0
H199 H 0.1416 0.2458 0.88911 0.0
H200 H 0.21851 0.28654 0.82313 0.0
H201 H 0.21347 0.09782 0.75616 0.0
H202 H 0.13698 0.05672 0.82283 0.0
H203 H 0.25707 0.19484 0.69983 0.0
H204 H 0.31485 0.29404 0.78459 0.0
H205 H 0.41669 0.33999 0.74064 0.0
H206 H 0.4622 0.40491 0.66352 0.0
C207 C 0.86314 0.19564 0.84167 0.0
C208 C 0.8732 0.13211 0.84159 0.0
C209 C 0.81666 0.21437 0.81041 0.0
C210 C 0.77826 0.16998 0.77839 0.0
C211 C 0.79049 0.10725 0.7751 0.0
C212 C 0.83768 0.08833 0.8066 0.0
C213 C 0.72737 0.18984 0.74641 0.0
C214 C 0.69916 0.23753 0.76388 0.0
C215 C 0.65954 0.2696 0.72741 0.0
C216 C 0.66194 0.3356 0.73264 0.0
C217 C 0.63408 0.36968 0.69297 0.0
C218 C 0.60205 0.33806 0.6481 0.0
H219 H 0.6191 0.18616 0.68125 0.0
C220 C 0.59432 0.27123 0.64626 0.0
C221 C 0.6233 0.23727 0.68532 0.0
H222 H 0.5698 0.24541 0.61221 0.0
H223 H 0.89081 0.23115 0.86684 0.0
H224 H 0.81117 0.26395 0.81149 0.0
H225 H 0.76256 0.07254 0.7494 0.0
H226 H 0.84487 0.03932 0.80513 0.0
H227 H 0.71547 0.16711 0.70655 0.0
H228 H 0.711 0.25924 0.80418 0.0
H229 H 0.68894 0.36147 0.76527 0.0
H230 H 0.64054 0.42106 0.69561 0.0
C231 C 0.82877 0.88838 0.85614 0.0
C232 C 0.8513 0.85962 0.90284 0.0
C233 C 0.79141 0.85182 0.81753 0.0
C234 C 0.77555 0.7859 0.82534 0.0
C235 C 0.7936 0.75843 0.87457 0.0
C236 C 0.83171 0.79475 0.91268 0.0
C237 C 0.74178 0.74449 0.78225 0.0
C238 C 0.75002 0.75501 0.72751 0.0
C239 C 0.71545 0.71635 0.6831 0.0
C240 C 0.70621 0.74584 0.63221 0.0
C241 C 0.66821 0.71424 0.59156 0.0
C242 C 0.63964 0.65187 0.60043 0.0
H243 H 0.6983 0.62717 0.72839 0.0
C244 C 0.65291 0.62008 0.64919 0.0
C245 C 0.69034 0.6522 0.69047 0.0
H246 H 0.63128 0.57201 0.65703 0.0
H247 H 0.84337 0.93809 0.84742 0.0
H248 H 0.77637 0.87491 0.78091 0.0
H249 H 0.78106 0.70802 0.88204 0.0
H250 H 0.8483 0.7714 0.9485 0.0
H251 H 0.71125 0.70347 0.79622 0.0
H252 H 0.78131 0.79593 0.71436 0.0
H253 H 0.72582 0.79476 0.625 0.0
H254 H 0.65888 0.7397 0.55415 0.0
loop_
_geom_bond_atom_site_label_1
_geom_bond_atom_site_label_2
_geom_bond_distance
_geom_bond_site_symmetry_2
_ccdc_geom_bond_type
Fe0 O1 1.893 . S
Fe0 O4 1.707 1_554 S
Fe0 O9 2.084 1_655 S
Fe0 O14 1.929 1_654 S
Fe0 O20 2.084 . S
Fe0 O29 1.930 1_554 S
O1 Fe0 1.893 . S
O1 Fe3 1.715 1_665 S
Fe2 O4 1.886 . S
Fe2 O5 1.715 1_665 S
Fe2 O12 1.935 1_665 S
Fe2 O13 2.077 1_655 S
Fe2 O19 1.935 1_565 S
Fe2 O28 2.077 . S
Fe3 O1 1.715 1_445 S
Fe3 O6 1.886 . S
Fe3 O10 1.935 1_545 S
Fe3 O15 2.077 . S
Fe3 O21 1.935 1_445 S
Fe3 O25 2.077 1_455 S
O4 Fe0 1.707 1_556 S
O4 Fe2 1.886 . S
O5 Fe2 1.715 1_445 S
O5 Fe7 1.890 . S
O6 Fe3 1.886 . S
O6 Fe7 1.711 1_554 S
Fe7 O5 1.890 . S
Fe7 O6 1.711 1_556 S
Fe7 O11 2.081 . S
Fe7 O16 1.932 1_556 S
Fe7 O18 2.081 1_455 S
Fe7 O26 1.932 1_456 S
C8 O20 1.381 . S
C8 O21 1.421 . S
O9 Fe0 2.084 1_455 S
O9 C22 1.381 . S
O10 Fe3 1.935 1_565 S
O10 C22 1.421 . S
O11 Fe7 2.081 . S
O11 C27 1.381 . S
O12 Fe2 1.935 1_445 S
O12 C27 1.421 . S
O13 Fe2 2.077 1_455 S
O13 C17 1.381 . S
O14 Fe0 1.929 1_456 S
O14 C17 1.421 . S
O15 Fe3 2.077 . S
O15 C23 1.381 . S
O16 Fe7 1.932 1_554 S
O16 C23 1.421 . S
C17 O13 1.381 . S
C17 O14 1.421 . S
O18 Fe7 2.081 1_655 S
O18 C30 1.381 . S
O19 Fe2 1.935 1_545 S
O19 C30 1.421 . S
O20 Fe0 2.084 . S
O20 C8 1.381 . S
O21 Fe3 1.935 1_665 S
O21 C8 1.421 . S
C22 O9 1.381 . S
C22 O10 1.421 . S
C23 O15 1.381 . S
C23 O16 1.421 . S
C24 O25 1.381 . S
C24 O26 1.421 . S
O25 Fe3 2.077 1_655 S
O25 C24 1.381 . S
O26 Fe7 1.932 1_654 S
O26 C24 1.421 . S
C27 O11 1.381 . S
C27 O12 1.421 . S
O28 Fe2 2.077 . S
O28 C31 1.381 . S
O29 Fe0 1.930 1_556 S
O29 C31 1.421 . S
C30 O18 1.381 . S
C30 O19 1.421 . S
C31 O28 1.381 . S
C31 O29 1.421 . S
C32 O44 1.241 . S
C32 O45 1.280 . S
C33 O46 1.277 . S
C33 O47 1.245 . S
C34 O58 1.247 . S
C34 O60 1.289 . S
Mg35 O36 1.926 . S
Mg35 O45 1.984 . S
Mg35 O47 1.988 . S
Mg35 O48 2.061 . S
O36 Mg35 1.926 . S
O36 Mg37 1.986 . S
O36 Mg38 1.917 . S
Mg37 O36 1.986 . S
Mg37 O44 2.042 . S
Mg37 O46 2.041 . S
Mg37 O52 2.038 . S
Mg37 O60 2.238 . S
Mg38 O36 1.917 . S
Mg38 O39 1.917 . S
Mg38 O49 2.106 . S
Mg38 O51 2.079 . S
Mg38 O60 2.106 . S
Mg38 O61 2.079 . S
O39 Mg38 1.917 . S
O39 Mg40 1.926 . S
O39 Mg41 1.986 . S
Mg40 O39 1.926 . S
Mg40 O54 1.984 . S
Mg40 O57 1.988 . S
Mg40 O58 2.061 . S
Mg41 O39 1.986 . S
Mg41 O49 2.238 . S
Mg41 O53 2.042 . S
Mg41 O55 2.041 . S
Mg41 O62 2.038 . S
C42 O48 1.247 . S
C42 O49 1.289 . S
C43 O61 1.245 . S
C43 O62 1.274 . S
O44 C32 1.241 . S
O44 Mg37 2.042 . S
O45 C32 1.280 . S
O45 Mg35 1.984 . S
O46 C33 1.277 . S
O46 Mg37 2.041 . S
O47 C33 1.245 . S
O47 Mg35 1.988 . S
O48 Mg35 2.061 . S
O48 C42 1.247 . S
O49 Mg38 2.106 . S
O49 Mg41 2.238 . S
O49 C42 1.289 . S
C50 O51 1.245 . S
C50 O52 1.274 . S
O51 Mg38 2.079 . S
O51 C50 1.245 . S
O52 Mg37 2.038 . S
O52 C50 1.274 . S
O53 Mg41 2.042 . S
O53 C56 1.241 . S
O54 Mg40 1.984 . S
O54 C56 1.280 . S
O55 Mg41 2.041 . S
O55 C59 1.277 . S
C56 O53 1.241 . S
C56 O54 1.280 . S
O57 Mg40 1.988 . S
O57 C59 1.245 . S
O58 C34 1.247 . S
O58 Mg40 2.061 . S
C59 O55 1.277 . S
C59 O57 1.245 . S
O60 C34 1.289 . S
O60 Mg37 2.238 . S
O60 Mg38 2.106 . S
O61 Mg38 2.079 . S
O61 C43 1.245 . S
O62 Mg41 2.038 . S
O62 C43 1.274 . S
C63 C64 1.386 . S
C63 C65 1.383 . S
C63 H79 0.951 . S
C64 C63 1.386 . S
C64 C68 1.383 . S
C65 C63 1.383 . S
C65 C66 1.402 . S
C65 H80 0.951 . S
C66 C65 1.402 . S
C66 C67 1.375 . S
C66 C69 1.481 . S
C67 C66 1.375 . S
C67 C68 1.367 . S
C67 H81 0.951 . S
C68 C64 1.383 . S
C68 C67 1.367 . S
C68 H82 0.950 . S
C69 C66 1.481 . S
C69 C70 1.297 . S
C69 H83 0.950 . S
C70 C69 1.297 . S
C70 C71 1.479 . S
C70 H84 0.950 . S
C71 C70 1.479 . S
C71 C72 1.375 . S
C71 C77 1.404 . S
C72 C71 1.375 . S
C72 C73 1.369 . S
C72 H85 0.950 . S
C73 C72 1.369 . S
C73 C74 1.392 . S
C73 H86 0.951 . S
C74 C73 1.392 . S
C74 C76 1.384 . S
H75 C77 0.949 . S
C76 C74 1.384 . S
C76 C77 1.385 . S
C76 H78 0.950 . S
C77 C71 1.404 . S
C77 H75 0.949 . S
C77 C76 1.385 . S
H78 C76 0.950 . S
H79 C63 0.951 . S
H80 C65 0.951 . S
H81 C67 0.951 . S
H82 C68 0.950 . S
H83 C69 0.950 . S
H84 C70 0.950 . S
H85 C72 0.950 . S
H86 C73 0.951 . S
C87 C88 1.386 . S
C87 C89 1.383 . S
C87 H103 0.951 . S
C88 C87 1.386 . S
C88 C92 1.383 . S
C89 C87 1.383 . S
C89 C90 1.402 . S
C89 H104 0.951 . S
C90 C89 1.402 . S
C90 C91 1.375 . S
C90 C93 1.481 . S
C91 C90 1.375 . S
C91 C92 1.367 . S
C91 H105 0.951 . S
C92 C88 1.383 . S
C92 C91 1.367 . S
C92 H106 0.950 . S
C93 C90 1.481 . S
C93 C94 1.297 . S
C93 H107 0.950 . S
C94 C93 1.297 . S
C94 C95 1.479 . S
C94 H108 0.950 . S
C95 C94 1.479 . S
C95 C96 1.375 . S
C95 C101 1.404 . S
C96 C95 1.375 . S
C96 C97 1.369 . S
C96 H109 0.950 . S
C97 C96 1.369 . S
C97 C98 1.392 . S
C97 H110 0.951 . S
C98 C97 1.392 . S
C98 C100 1.384 . S
H99 C101 0.949 . S
C100 C98 1.384 . S
C100 C101 1.385 . S
C100 H102 0.950 . S
C101 C95 1.404 . S
C101 H99 0.949 . S
C101 C100 1.385 . S
H102 C100 0.950 . S
H103 C87 0.951 . S
H104 C89 0.951 . S
H105 C91 0.951 . S
H106 C92 0.950 . S
H107 C93 0.950 . S
H108 C94 0.950 . S
H109 C96 0.950 . S
H110 C97 0.951 . S
C111 C112 1.386 . S
C111 C113 1.383 . S
C111 H127 0.951 . S
C112 C111 1.386 . S
C112 C116 1.383 . S
C113 C111 1.383 . S
C113 C114 1.402 . S
C113 H128 0.951 . S
C114 C113 1.402 . S
C114 C115 1.375 . S
C114 C117 1.481 . S
C115 C114 1.375 . S
C115 C116 1.367 . S
C115 H129 0.951 . S
C116 C112 1.383 . S
C116 C115 1.367 . S
C116 H130 0.950 . S
C117 C114 1.481 . S
C117 C118 1.297 . S
C117 H131 0.950 . S
C118 C117 1.297 . S
C118 C119 1.479 . S
C118 H132 0.950 . S
C119 C118 1.479 . S
C119 C120 1.375 . S
C119 C125 1.404 . S
C120 C119 1.375 . S
C120 C121 1.369 . S
C120 H133 0.950 . S
C121 C120 1.369 . S
C121 C122 1.392 . S
C121 H134 0.951 . S
C122 C121 1.392 . S
C122 C124 1.384 . S
H123 C125 0.949 . S
C124 C122 1.384 . S
C124 C125 1.385 . S
C124 H126 0.950 . S
C125 C119 1.404 . S
C125 H123 0.949 . S
C125 C124 1.385 . S
H126 C124 0.950 . S
H127 C111 0.951 . S
H128 C113 0.951 . S
H129 C115 0.951 . S
H130 C116 0.950 . S
H131 C117 0.950 . S
H132 C118 0.950 . S
H133 C120 0.950 . S
H134 C121 0.951 . S
C135 C136 1.386 . S
C135 C137 1.383 . S
C135 H151 0.951 . S
C136 C135 1.386 . S
C136 C140 1.383 . S
C137 C135 1.383 . S
C137 C138 1.402 . S
C137 H152 0.951 . S
C138 C137 1.402 . S
C138 C139 1.375 . S
C138 C141 1.481 . S
C139 C138 1.375 . S
C139 C140 1.367 . S
C139 H153 0.951 . S
C140 C136 1.383 . S
C140 C139 1.367 . S
C140 H154 0.950 . S
C141 C138 1.481 . S
C141 C142 1.297 . S
C141 H155 0.950 . S
C142 C141 1.297 . S
C142 C143 1.479 . S
C142 H156 0.950 . S
C143 C142 1.479 . S
C143 C144 1.375 . S
C143 C149 1.404 . S
C144 C143 1.375 . S
C144 C145 1.369 . S
C144 H157 0.950 . S
C145 C144 1.369 . S
C145 C146 1.392 . S
C145 H158 0.951 . S
C146 C145 1.392 . S
C146 C148 1.384 . S
H147 C149 0.949 . S
C148 C146 1.384 . S
C148 C149 1.385 . S
C148 H150 0.950 . S
C149 C143 1.404 . S
C149 H147 0.949 . S
C149 C148 1.385 . S
H150 C148 0.950 . S
H151 C135 0.951 . S
H152 C137 0.951 . S
H153 C139 0.951 . S
H154 C140 0.950 . S
H155 C141 0.950 . S
H156 C142 0.950 . S
H157 C144 0.950 . S
H158 C145 0.951 . S
C159 C160 1.386 . S
C159 C161 1.383 . S
C159 H175 0.951 . S
C160 C159 1.386 . S
C160 C164 1.383 . S
C161 C159 1.383 . S
C161 C162 1.402 . S
C161 H176 0.951 . S
C162 C161 1.402 . S
C162 C163 1.375 . S
C162 C165 1.481 . S
C163 C162 1.375 . S
C163 C164 1.367 . S
C163 H177 0.951 . S
C164 C160 1.383 . S
C164 C163 1.367 . S
C164 H178 0.950 . S
C165 C162 1.481 . S
C165 C166 1.297 . S
C165 H179 0.950 . S
C166 C165 1.297 . S
C166 C167 1.479 . S
C166 H180 0.950 . S
C167 C166 1.479 . S
C167 C168 1.375 . S
C167 C173 1.404 . S
C168 C167 1.375 . S
C168 C169 1.369 . S
C168 H181 0.950 . S
C169 C168 1.369 . S
C169 C170 1.392 . S
C169 H182 0.951 . S
C170 C169 1.392 . S
C170 C172 1.384 . S
H171 C173 0.949 . S
C172 C170 1.384 . S
C172 C173 1.385 . S
C172 H174 0.950 . S
C173 C167 1.404 . S
C173 H171 0.949 . S
C173 C172 1.385 . S
H174 C172 0.950 . S
H175 C159 0.951 . S
H176 C161 0.951 . S
H177 C163 0.951 . S
H178 C164 0.950 . S
H179 C165 0.950 . S
H180 C166 0.950 . S
H181 C168 0.950 . S
H182 C169 0.951 . S
C183 C184 1.386 . S
C183 C185 1.383 . S
C183 H199 0.951 . S
C184 C183 1.386 . S
C184 C188 1.383 . S
C185 C183 1.383 . S
C185 C186 1.402 . S
C185 H200 0.951 . S
C186 C185 1.402 . S
C186 C187 1.375 . S
C186 C189 1.481 . S
C187 C186 1.375 . S
C187 C188 1.367 . S
C187 H201 0.951 . S
C188 C184 1.383 . S
C188 C187 1.367 . S
C188 H202 0.950 . S
C189 C186 1.481 . S
C189 C190 1.297 . S
C189 H203 0.950 . S
C190 C189 1.297 . S
C190 C191 1.479 . S
C190 H204 0.950 . S
C191 C190 1.479 . S
C191 C192 1.375 . S
C191 C197 1.404 . S
C192 C191 1.375 . S
C192 C193 1.369 . S
C192 H205 0.950 . S
C193 C192 1.369 . S
C193 C194 1.392 . S
C193 H206 0.951 . S
C194 C193 1.392 . S
C194 C196 1.384 . S
H195 C197 0.949 . S
C196 C194 1.384 . S
C196 C197 1.385 . S
C196 H198 0.950 . S
C197 C191 1.404 . S
C197 H195 0.949 . S
C197 C196 1.385 . S
H198 C196 0.950 . S
H199 C183 0.951 . S
H200 C185 0.951 . S
H201 C187 0.951 . S
H202 C188 0.950 . S
H203 C189 0.950 . S
H204 C190 0.950 . S
H205 C192 0.950 . S
H206 C193 0.951 . S
C207 C208 1.386 . S
C207 C209 1.383 . S
C207 H223 0.951 . S
C208 C207 1.386 . S
C208 C212 1.383 . S
C209 C207 1.383 . S
C209 C210 1.402 . S
C209 H224 0.951 . S
C210 C209 1.402 . S
C210 C211 1.375 . S
C210 C213 1.481 . S
C211 C210 1.375 . S
C211 C212 1.367 . S
C211 H225 0.951 . S
C212 C208 1.383 . S
C212 C211 1.367 . S
C212 H226 0.950 . S
C213 C210 1.481 . S
C213 C214 1.297 . S
C213 H227 0.950 . S
C214 C213 1.297 . S
C214 C215 1.479 . S
C214 H228 0.950 . S
C215 C214 1.479 . S
C215 C216 1.375 . S
C215 C221 1.404 . S
C216 C215 1.375 . S
C216 C217 1.369 . S
C216 H229 0.950 . S
C217 C216 1.369 . S
C217 C218 1.392 . S
C217 H230 0.951 . S
C218 C217 1.392 . S
C218 C220 1.384 . S
H219 C221 0.949 . S
C220 C218 1.384 . S
C220 C221 1.385 . S
C220 H222 0.950 . S
C221 C215 1.404 . S
C221 H219 0.949 . S
C221 C220 1.385 . S
H222 C220 0.950 . S
H223 C207 0.951 . S
H224 C209 0.951 . S
H225 C211 0.951 . S
H226 C212 0.950 . S
H227 C213 0.950 . S
H228 C214 0.950 . S
H229 C216 0.950 . S
H230 C217 0.951 . S
C231 C232 1.386 . S
C231 C233 1.383 . S
C231 H247 0.951 . S
C232 C231 1.386 . S
C232 C236 1.383 . S
C233 C231 1.383 . S
C233 C234 1.402 . S
C233 H248 0.951 . S
C234 C233 1.402 . S
C234 C235 1.375 . S
C234 C237 1.481 . S
C235 C234 1.375 . S
C235 C236 1.367 . S
C235 H249 0.951 . S
C236 C232 1.383 . S
C236 C235 1.367 . S
C236 H250 0.950 . S
C237 C234 1.481 . S
C237 C238 1.297 . S
C237 H251 0.950 . S
C238 C237 1.297 . S
C238 C239 1.479 . S
C238 H252 0.950 . S
C239 C238 1.479 . S
C239 C240 1.375 . S
C239 C245 1.404 . S
C240 C239 1.375 . S
C240 C241 1.369 . S
C240 H253 0.950 . S
C241 C240 1.369 . S
C241 C242 1.392 . S
C241 H254 0.951 . S
C242 C241 1.392 . S
C242 C244 1.384 . S
H243 C245 0.949 . S
C244 C242 1.384 . S
C244 C245 1.385 . S
C244 H246 0.950 . S
C245 C239 1.404 . S
C245 H243 0.949 . S
C245 C244 1.385 . S
H246 C244 0.950 . S
H247 C231 0.951 . S
H248 C233 0.951 . S
H249 C235 0.951 . S
H250 C236 0.950 . S
H251 C237 0.950 . S
H252 C238 0.950 . S
H253 C240 0.950 . S
H254 C241 0.951 . S
C64 C23 1.145 . S
C74 C34 1.068 . S
C88 C24 1.514 . S
C98 C56 1.522 . S
C112 C8 1.466 . S
C122 C43 1.429 . S
C136 C22 1.593 . S
C146 C33 1.584 . S
C160 C17 1.511 . S
C170 C32 1.579 . S
C194 C50 1.521 . S
C184 C27 1.511 . S
C208 C30 1.638 . S
C218 C59 1.610 . S
C242 C42 1.071 . S
C232 C31 1.093 . S
