# Generated by pormake.
# Topology bcu-b, (8,8)-cn, num edge types: 1
# Building blocks:
#     Node 0, Type 0, BuildingBlock: TAGTUT_clean_sbu_1, # of connection points: 8
#     Node 1, Type 1, BuildingBlock: TAGTUT_clean_sbu_3, # of connection points: 8
#     Edge 2, Type (0, 1), BuildingBlock: EYOCIG_clean_linker_4, # of connection points: 2
#     Edge 3, Type (0, 1), BuildingBlock: EYOCIG_clean_linker_4, # of connection points: 2
#     Edge 4, Type (0, 1), BuildingBlock: EYOCIG_clean_linker_4, # of connection points: 2
#     Edge 5, Type (0, 1), BuildingBlock: EYOCIG_clean_linker_4, # of connection points: 2
#     Edge 6, Type (0, 1), BuildingBlock: EYOCIG_clean_linker_4, # of connection points: 2
#     Edge 7, Type (0, 1), BuildingBlock: EYOCIG_clean_linker_4, # of connection points: 2
#     Edge 8, Type (0, 1), BuildingBlock: EYOCIG_clean_linker_4, # of connection points: 2
#     Edge 9, Type (0, 1), BuildingBlock: EYOCIG_clean_linker_4, # of connection points: 2
# Relax obj value: 0.013
# Max RMSD: 0.079
# Mean RMSD: 0.068
data_MOF--net-bcu-b--node1-TAGTUT_clean_sbu_1--node2-TAGTUT_clean_sbu_3--edge1-EYOCIG_clean_linker_4
_symmetry_space_group_name_H-M    P1
_symmetry_Int_Tables_number       1
_symmetry_cell_setting            triclinic
loop_
_symmetry_equiv_pos_as_xyz
'x, y, z'
_cell_length_a     16.688552
_cell_length_b     16.038896
_cell_length_c     17.361366
_cell_angle_alpha  90.639649
_cell_angle_beta   91.052481
_cell_angle_gamma 110.3341
loop_
_atom_site_label
_atom_site_type_symbol
_atom_site_fract_x
_atom_site_fract_y
_atom_site_fract_z
_atom_type_partial_charge
C0 C 0.80571 0.16583 0.08774 0.0
C1 C 0.90597 0.18525 0.86019 0.0
C2 C 0.83955 0.83079 0.88488 0.0
Mg3 Mg 0.9837 0.18399 0.02254 0.0
O4 O 0.93355 0.05993 0.02118 0.0
Mg5 Mg 0.81825 0.00256 0.97028 0.0
Mg6 Mg -0.00701 -0.01809 0.9774 0.0
O7 O 0.0505 0.90136 0.93513 0.0
Mg8 Mg -0.00438 0.77974 0.955 0.0
Mg9 Mg 0.16823 0.96014 0.98106 0.0
C10 C 0.1427 0.12985 0.08171 0.0
C11 C 0.13276 0.09165 0.85398 0.0
O12 O 0.77102 0.09418 0.04762 0.0
O13 O 0.88623 0.20958 0.08931 0.0
O14 O 0.84885 0.11029 0.87534 0.0
O15 O 0.9694 0.22385 0.90581 0.0
O16 O 0.10529 0.18771 0.07764 0.0
O17 O 0.11136 0.05254 0.0497 0.0
C18 C 0.84934 0.86711 0.09642 0.0
O19 O 0.92635 0.88612 0.07391 0.0
O20 O 0.79748 0.90109 0.06615 0.0
O21 O 0.20448 0.85475 0.90603 0.0
O22 O 0.08227 0.73646 0.88943 0.0
O23 O 0.14703 0.86667 0.08226 0.0
C24 C 0.16207 0.77632 0.87849 0.0
O25 O 0.01982 0.75745 0.07587 0.0
O26 O 0.87171 0.77059 0.90102 0.0
C27 C 0.09086 0.79927 0.11081 0.0
O28 O 0.87686 0.9129 0.90325 0.0
O29 O 0.05818 0.0771 0.88076 0.0
O30 O 0.18392 0.0549 0.88103 0.0
C31 C 0.62557 0.63739 0.59109 0.0
C32 C 0.73373 0.3615 0.59279 0.0
C33 C 0.6258 0.3221 0.36235 0.0
Mg34 Mg 0.47011 0.66679 0.48776 0.0
Mg35 Mg 0.30132 0.48815 0.45128 0.0
O36 O 0.41881 0.54672 0.43606 0.0
Mg37 Mg 0.49512 0.48609 0.48115 0.0
O38 O 0.57678 0.43255 0.52744 0.0
Mg39 Mg 0.68487 0.50684 0.47673 0.0
Mg40 Mg 0.54936 0.30888 0.52154 0.0
C41 C 0.3563 0.33806 0.36949 0.0
O42 O 0.39457 0.4014 0.5647 0.0
O43 O 0.37467 0.70854 0.4078 0.0
O44 O 0.42399 0.27422 0.57337 0.0
O45 O 0.37146 0.6388 0.58239 0.0
O46 O 0.26135 0.58167 0.38832 0.0
O47 O 0.27219 0.50338 0.57137 0.0
O48 O 0.60018 0.56463 0.40177 0.0
O49 O 0.57337 0.69173 0.39528 0.0
C50 C 0.61704 0.64325 0.37611 0.0
C51 C 0.29973 0.66497 0.3788 0.0
O52 O 0.43437 0.3738 0.39277 0.0
O53 O 0.75605 0.43639 0.55795 0.0
O54 O 0.2961 0.36529 0.39112 0.0
O55 O 0.67416 0.40068 0.38221 0.0
O56 O 0.658 0.30398 0.58787 0.0
O57 O 0.56534 0.27487 0.40409 0.0
O58 O 0.54959 0.60281 0.56335 0.0
O59 O 0.68586 0.61007 0.57066 0.0
C60 C 0.307 0.57716 0.6079 0.0
C61 C 0.37777 0.32163 0.58827 0.0
C62 C 0.26462 0.17745 0.18737 0.0
C63 C 0.21167 0.14706 0.13688 0.0
C64 C 0.30995 0.22413 0.25299 0.0
C65 C 0.33755 0.27548 0.30627 0.0
C66 C 0.71146 0.22282 0.18029 0.0
C67 C 0.75264 0.19502 0.13738 0.0
C68 C 0.67159 0.25475 0.23879 0.0
C69 C 0.64787 0.28231 0.29554 0.0
C70 C 0.78434 0.76136 0.21189 0.0
C71 C 0.81972 0.80838 0.15991 0.0
C72 C 0.73306 0.7125 0.27145 0.0
C73 C 0.6816 0.67621 0.31934 0.0
C74 C 0.15327 0.74985 0.23498 0.0
C75 C 0.11597 0.76497 0.17963 0.0
C76 C 0.2083 0.73198 0.29027 0.0
C77 C 0.25557 0.70886 0.33142 0.0
C78 C 0.22758 0.68463 0.78768 0.0
C79 C 0.20323 0.73107 0.82967 0.0
C80 C 0.24954 0.6324 0.73118 0.0
C81 C 0.26914 0.5982 0.67572 0.0
C82 C 0.19717 0.19733 0.73904 0.0
C83 C 0.16136 0.15079 0.79093 0.0
C84 C 0.25182 0.24715 0.68222 0.0
C85 C 0.30788 0.28541 0.63905 0.0
C86 C 0.87103 0.27017 0.74145 0.0
C87 C 0.88992 0.23414 0.79614 0.0
C88 C 0.8356 0.31097 0.68466 0.0
C89 C 0.7946 0.34033 0.64153 0.0
C90 C 0.71493 0.78024 0.78115 0.0
C91 C 0.77125 0.80882 0.82888 0.0
C92 C 0.66695 0.73871 0.71517 0.0
C93 C 0.64004 0.69342 0.65831 0.0
loop_
_geom_bond_atom_site_label_1
_geom_bond_atom_site_label_2
_geom_bond_distance
_geom_bond_site_symmetry_2
_ccdc_geom_bond_type
C0 O12 1.241 . S
C0 O13 1.280 . S
C1 O14 1.277 . S
C1 O15 1.245 . S
C2 O26 1.247 . S
C2 O28 1.289 . S
Mg3 O4 1.926 . S
Mg3 O13 1.984 . S
Mg3 O15 1.988 1_554 S
Mg3 O16 2.061 1_655 S
O4 Mg3 1.926 . S
O4 Mg5 1.986 1_545 S
O4 Mg6 1.923 1_655 S
Mg5 O4 1.986 1_565 S
Mg5 O12 2.042 1_565 S
Mg5 O14 2.041 1_564 S
Mg5 O20 2.038 . S
Mg5 O28 2.238 1_554 S
Mg6 O4 1.923 1_455 S
Mg6 O7 1.910 1_544 S
Mg6 O17 2.108 . S
Mg6 O19 2.075 1_445 S
Mg6 O28 2.105 1_444 S
Mg6 O29 2.083 1_554 S
O7 Mg6 1.910 1_566 S
O7 Mg8 1.926 . S
O7 Mg9 1.985 1_566 S
Mg8 O7 1.926 . S
Mg8 O22 1.984 . S
Mg8 O25 1.988 1_556 S
Mg8 O26 2.061 1_455 S
Mg9 O7 1.985 1_544 S
Mg9 O17 2.241 . S
Mg9 O21 2.038 1_544 S
Mg9 O23 2.046 1_545 S
Mg9 O30 2.034 1_554 S
C10 O16 1.247 . S
C10 O17 1.289 . S
C11 O29 1.245 . S
C11 O30 1.274 . S
O12 C0 1.241 . S
O12 Mg5 2.042 1_545 S
O13 C0 1.280 . S
O13 Mg3 1.984 . S
O14 C1 1.277 . S
O14 Mg5 2.041 1_546 S
O15 C1 1.245 . S
O15 Mg3 1.988 1_556 S
O16 Mg3 2.061 1_455 S
O16 C10 1.247 . S
O17 Mg6 2.108 . S
O17 Mg9 2.241 . S
O17 C10 1.289 . S
C18 O19 1.245 . S
C18 O20 1.274 . S
O19 Mg6 2.075 1_665 S
O19 C18 1.245 . S
O20 Mg5 2.038 . S
O20 C18 1.274 . S
O21 Mg9 2.038 1_566 S
O21 C24 1.241 . S
O22 Mg8 1.984 . S
O22 C24 1.280 . S
O23 Mg9 2.046 1_565 S
O23 C27 1.277 . S
C24 O21 1.241 . S
C24 O22 1.280 . S
O25 Mg8 1.988 1_554 S
O25 C27 1.245 . S
O26 C2 1.247 . S
O26 Mg8 2.061 1_655 S
C27 O23 1.277 . S
C27 O25 1.245 . S
O28 C2 1.289 . S
O28 Mg5 2.238 1_556 S
O28 Mg6 2.105 1_666 S
O29 Mg6 2.083 1_556 S
O29 C11 1.245 . S
O30 Mg9 2.034 1_556 S
O30 C11 1.274 . S
C31 O58 1.312 . S
C31 O59 1.208 . S
C32 O53 1.331 . S
C32 O56 1.244 . S
C33 O55 1.264 . S
C33 O57 1.273 . S
Mg34 O36 1.936 . S
Mg34 O43 2.081 . S
Mg34 O45 2.023 . S
Mg34 O49 2.031 . S
Mg34 O58 2.291 . S
Mg35 O36 1.963 . S
Mg35 O46 1.942 . S
Mg35 O47 1.955 . S
Mg35 O54 1.986 . S
O36 Mg34 1.936 . S
O36 Mg35 1.963 . S
O36 Mg37 1.915 . S
Mg37 O36 1.915 . S
Mg37 O38 1.915 . S
Mg37 O42 2.013 . S
Mg37 O48 2.114 . S
Mg37 O52 2.013 . S
Mg37 O58 2.114 . S
O38 Mg37 1.915 . S
O38 Mg39 1.936 . S
O38 Mg40 1.963 . S
Mg39 O38 1.936 . S
Mg39 O48 2.291 . S
Mg39 O53 2.081 . S
Mg39 O55 2.023 . S
Mg39 O59 2.031 . S
Mg40 O38 1.963 . S
Mg40 O44 1.986 . S
Mg40 O56 1.942 . S
Mg40 O57 1.955 . S
C41 O52 1.191 . S
C41 O54 1.307 . S
O42 Mg37 2.013 . S
O42 C61 1.191 . S
O43 Mg34 2.081 . S
O43 C51 1.331 . S
O44 Mg40 1.986 . S
O44 C61 1.307 . S
O45 Mg34 2.023 . S
O45 C60 1.264 . S
O46 Mg35 1.942 . S
O46 C51 1.244 . S
O47 Mg35 1.955 . S
O47 C60 1.273 . S
O48 Mg37 2.114 . S
O48 Mg39 2.291 . S
O48 C50 1.312 . S
O49 Mg34 2.031 . S
O49 C50 1.208 . S
C50 O48 1.312 . S
C50 O49 1.208 . S
C51 O43 1.331 . S
C51 O46 1.244 . S
O52 Mg37 2.013 . S
O52 C41 1.191 . S
O53 C32 1.331 . S
O53 Mg39 2.081 . S
O54 Mg35 1.986 . S
O54 C41 1.307 . S
O55 C33 1.264 . S
O55 Mg39 2.023 . S
O56 C32 1.244 . S
O56 Mg40 1.942 . S
O57 C33 1.273 . S
O57 Mg40 1.955 . S
O58 C31 1.312 . S
O58 Mg34 2.291 . S
O58 Mg37 2.114 . S
O59 C31 1.208 . S
O59 Mg39 2.031 . S
C60 O45 1.264 . S
C60 O47 1.273 . S
C61 O42 1.191 . S
C61 O44 1.307 . S
C62 C63 1.170 . S
C62 C64 1.380 . S
C63 C62 1.170 . S
C64 C62 1.380 . S
C64 C65 1.170 . S
C65 C64 1.170 . S
C66 C67 1.170 . S
C66 C68 1.380 . S
C67 C66 1.170 . S
C68 C66 1.380 . S
C68 C69 1.170 . S
C69 C68 1.170 . S
C70 C71 1.170 . S
C70 C72 1.380 . S
C71 C70 1.170 . S
C72 C70 1.380 . S
C72 C73 1.170 . S
C73 C72 1.170 . S
C74 C75 1.170 . S
C74 C76 1.380 . S
C75 C74 1.170 . S
C76 C74 1.380 . S
C76 C77 1.170 . S
C77 C76 1.170 . S
C78 C79 1.170 . S
C78 C80 1.380 . S
C79 C78 1.170 . S
C80 C78 1.380 . S
C80 C81 1.170 . S
C81 C80 1.170 . S
C82 C83 1.170 . S
C82 C84 1.380 . S
C83 C82 1.170 . S
C84 C82 1.380 . S
C84 C85 1.170 . S
C85 C84 1.170 . S
C86 C87 1.170 . S
C86 C88 1.380 . S
C87 C86 1.170 . S
C88 C86 1.380 . S
C88 C89 1.170 . S
C89 C88 1.170 . S
C90 C91 1.170 . S
C90 C92 1.380 . S
C91 C90 1.170 . S
C92 C90 1.380 . S
C92 C93 1.170 . S
C93 C92 1.170 . S
C63 C10 1.173 . S
C65 C41 1.153 . S
C67 C0 1.543 . S
C69 C33 1.588 . S
C71 C18 1.492 . S
C73 C50 1.464 . S
C75 C27 1.589 . S
C77 C51 1.570 . S
C79 C24 1.572 . S
C81 C60 1.572 . S
C85 C61 1.442 . S
C83 C11 1.420 . S
C87 C1 1.561 . S
C89 C32 1.558 . S
C93 C31 1.183 . S
C91 C2 1.193 . S
