# Generated by pormake.
# Topology ftw, (4,12)-cn, num edge types: 1
# Building blocks:
#     Node 0, Type 0, BuildingBlock: ESEHIV_clean_sbu_0, # of connection points: 4
#     Node 1, Type 0, BuildingBlock: ESEHIV_clean_sbu_0, # of connection points: 4
#     Node 2, Type 0, BuildingBlock: ESEHIV_clean_sbu_0, # of connection points: 4
#     Node 3, Type 1, BuildingBlock: EZIPEK_clean_sbu_0, # of connection points: 12
#     Edge 4, Type (0, 1), None
#     Edge 5, Type (0, 1), None
#     Edge 6, Type (0, 1), None
#     Edge 7, Type (0, 1), None
#     Edge 8, Type (0, 1), None
#     Edge 9, Type (0, 1), None
#     Edge 10, Type (0, 1), None
#     Edge 11, Type (0, 1), None
#     Edge 12, Type (0, 1), None
#     Edge 13, Type (0, 1), None
#     Edge 14, Type (0, 1), None
#     Edge 15, Type (0, 1), None
# Relax obj value: 0.031
# Max RMSD: 0.144
# Mean RMSD: 0.119
data_MOF--net-ftw--node1-ESEHIV_clean_sbu_0--node2-EZIPEK_clean_sbu_0--edge1-none
_symmetry_space_group_name_H-M    P1
_symmetry_Int_Tables_number       1
_symmetry_cell_setting            triclinic
loop_
_symmetry_equiv_pos_as_xyz
'x, y, z'
_cell_length_a     12.949534
_cell_length_b     12.872418
_cell_length_c     12.949796
_cell_angle_alpha  84.560337
_cell_angle_beta   84.619215
_cell_angle_gamma 95.578137
loop_
_atom_site_label
_atom_site_type_symbol
_atom_site_fract_x
_atom_site_fract_y
_atom_site_fract_z
_atom_type_partial_charge
Cu0 Cu 1.03911 0.51293 0.48779 0.0
N1 N 0.96659 0.43533 0.39715 0.0
N2 N 0.98758 0.34384 0.25966 0.0
C3 C 1.00841 0.3532 0.35821 0.0
C4 C 0.92851 0.4213 0.2351 0.0
C5 C 0.91422 0.47644 0.32053 0.0
O6 O 0.11444 0.41356 0.56971 0.0
C7 C 0.04972 0.69974 0.36212 0.0
O8 O 0.95525 0.69501 0.40991 0.0
H9 H 0.0661 0.31128 0.39486 0.0
H10 H 0.87787 0.54833 0.32147 0.0
N11 N 0.96574 0.5722 0.59507 0.0
N12 N 0.98669 0.6701 0.72691 0.0
C13 C 1.00327 0.66585 0.62345 0.0
C14 C 0.92 0.51758 0.6845 0.0
C15 C 0.93425 0.57709 0.76607 0.0
C16 C 0.05883 0.32793 0.60691 0.0
O17 O 0.96437 0.30914 0.57957 0.0
H18 H 0.05615 0.72308 0.57258 0.0
H19 H 0.88906 0.43597 0.69258 0.0
O20 O 0.10923 0.62999 0.38888 0.0
H21 H 0.90102 0.43932 0.15968 0.0
H22 H 0.91114 0.55249 0.848 0.0
Cu23 Cu 0.5703 1.02113 0.48727 0.0
N24 N 0.65693 0.09837 0.56677 0.0
N25 N 0.75709 0.08746 0.69769 0.0
C26 C 0.73975 0.05686 0.60377 0.0
C27 C 0.68569 0.15391 0.71928 0.0
C28 C 0.62532 0.16206 0.63758 0.0
O29 O 0.66378 0.94867 0.39464 0.0
C30 C 0.39758 1.01867 0.6245 0.0
O31 O 0.40408 0.11288 0.57473 0.0
H32 H 0.77564 0.99325 0.5707 0.0
H33 H 0.55676 0.20327 0.63612 0.0
N34 N 0.49814 0.09491 0.39236 0.0
N35 N 0.39374 0.1053 0.26584 0.0
C36 C 0.41121 0.05248 0.35593 0.0
C37 C 0.53301 0.18021 0.32634 0.0
C38 C 0.47047 0.1845 0.24575 0.0
C39 C 0.73796 1.01307 0.34529 0.0
O40 O 0.74715 0.11057 0.36755 0.0
H41 H 0.36847 0.97838 0.38878 0.0
H42 H 0.6009 0.2325 0.33538 0.0
O43 O 0.46111 0.95392 0.59539 0.0
H44 H 0.67532 0.19082 0.79082 0.0
H45 H 0.47889 0.24051 0.17761 0.0
Cu46 Cu 0.56358 0.52491 0.9875 0.0
N47 N 0.47914 0.59525 0.07687 0.0
N48 N 0.3827 0.73018 0.06746 0.0
C49 C 0.39426 0.63311 0.04052 0.0
C50 C 0.45937 0.75294 0.12756 0.0
C51 C 0.51712 0.66875 0.13526 0.0
O52 O 0.46738 0.44323 0.90692 0.0
C53 C 0.74129 0.6536 1.0034 0.0
O54 O 0.73662 0.58946 0.08876 0.0
H55 H 0.35329 0.59878 0.98073 0.0
H56 H 0.58911 0.66803 0.17076 0.0
N57 N 0.63819 0.42155 0.04338 0.0
N58 N 0.75465 0.3061 0.04382 0.0
C59 C 0.71247 0.37942 0.98581 0.0
C60 C 0.63795 0.37794 0.14169 0.0
C61 C 0.70798 0.30384 0.14129 0.0
C62 C 0.40047 0.38114 0.96914 0.0
O63 O 0.40079 0.38601 0.0698 0.0
H64 H 0.73164 0.39907 0.90257 0.0
H65 H 0.59032 0.39875 0.20818 0.0
O66 O 0.67485 0.63846 0.9369 0.0
H67 H 0.47512 0.82672 0.15999 0.0
H68 H 0.72791 0.25515 0.20747 0.0
C69 C 0.08505 0.25834 0.69459 0.0
C70 C 1.02404 0.27448 0.1963 0.0
C71 C 1.02238 0.74896 0.78115 0.0
C72 C 0.07432 0.77619 0.26967 0.0
C73 C 0.31456 0.79556 0.03226 0.0
C74 C 0.3237 0.30085 0.93708 0.0
C75 C 0.81949 0.74391 0.99562 0.0
C76 C 0.82258 0.23972 0.01191 0.0
C77 C 0.81547 0.98693 0.26359 0.0
C78 C 0.32002 0.07914 0.20292 0.0
C79 C 0.82393 0.0501 0.76311 0.0
C80 C 0.32016 0.99821 0.71531 0.0
Eu81 Eu 0.07029 0.21625 0.95322 0.0
O82 O 0.16076 0.1259 0.05264 0.0
O83 O 0.97914 0.09386 0.89169 0.0
Eu84 Eu 0.26659 0.04108 0.96342 0.0
Eu85 Eu 0.87318 0.99622 0.0078 0.0
O86 O 0.16337 0.11722 0.86664 0.0
O87 O 0.98368 0.10109 0.06801 0.0
Eu88 Eu 0.06903 1.00705 0.78949 0.0
Eu89 Eu 0.0698 1.02623 0.1799 0.0
O90 O 0.16282 0.92973 0.89612 0.0
O91 O 0.16005 0.94191 0.07692 0.0
O92 O 0.97494 0.91584 0.10346 0.0
O93 O 0.97898 0.91369 0.91835 0.0
Eu94 Eu 0.0687 0.82051 0.01302 0.0
O95 O 0.08106 0.29645 0.78724 0.0
O96 O 1.02662 0.30035 0.09379 0.0
O97 O 1.03644 0.72347 0.8808 0.0
O98 O 0.07076 0.73888 0.17701 0.0
O99 O 0.34242 0.89899 0.02712 0.0
O100 O 0.35574 0.20574 0.92875 0.0
O101 O 0.78774 0.83938 0.98308 0.0
O102 O 0.80009 0.13968 0.04981 0.0
O103 O 0.91443 1.01316 0.28046 0.0
O104 O 0.22456 0.04443 0.24808 0.0
O105 O 0.91318 1.0193 0.72141 0.0
O106 O 0.22164 0.99629 0.69258 0.0
O107 O 0.91235 0.72224 0.024 0.0
O108 O 0.22356 0.75208 0.00742 0.0
O109 O 0.91078 0.27924 0.95331 0.0
O110 O 0.22393 0.3198 0.95283 0.0
O111 O 0.05132 0.18448 0.24133 0.0
O112 O 0.07174 0.87649 0.28717 0.0
O113 O 0.08142 0.15693 0.67914 0.0
O114 O 1.03726 0.84632 0.73184 0.0
O115 O 0.35379 1.0156 0.80757 0.0
O116 O 0.34839 0.09216 0.10031 0.0
O117 O 0.79698 0.05073 0.8651 0.0
O118 O 0.78298 0.96965 0.17086 0.0
loop_
_geom_bond_atom_site_label_1
_geom_bond_atom_site_label_2
_geom_bond_distance
_geom_bond_site_symmetry_2
_ccdc_geom_bond_type
Cu0 N1 1.999 . S
Cu0 O6 1.974 . S
Cu0 N11 1.985 . S
Cu0 O20 1.959 . S
N1 Cu0 1.999 . S
N1 C3 1.263 . S
N1 C5 1.389 . S
N2 C3 1.358 . S
N2 C4 1.400 . S
C3 N1 1.263 . S
C3 N2 1.358 . S
C3 H9 0.930 1_455 S
C4 N2 1.400 . S
C4 C5 1.351 . S
C4 H21 0.930 . S
C5 N1 1.389 . S
C5 C4 1.351 . S
C5 H10 0.930 . S
O6 Cu0 1.974 . S
O6 C16 1.282 1_455 S
C7 O8 1.261 . S
C7 O20 1.251 1_655 S
O8 C7 1.261 . S
H9 C3 0.930 1_655 S
H10 C5 0.930 . S
N11 Cu0 1.985 . S
N11 C13 1.335 . S
N11 C14 1.390 1_455 S
N12 C13 1.345 . S
N12 C15 1.336 1_455 S
C13 N11 1.335 . S
C13 N12 1.345 . S
C13 H18 0.930 . S
C14 N11 1.390 1_655 S
C14 C15 1.346 . S
C14 H19 0.930 . S
C15 N12 1.336 1_655 S
C15 C14 1.346 . S
C15 H22 0.929 . S
C16 O6 1.282 1_655 S
C16 O17 1.216 . S
O17 C16 1.216 . S
H18 C13 0.930 . S
H19 C14 0.930 . S
O20 Cu0 1.959 . S
O20 C7 1.251 1_455 S
H21 C4 0.930 . S
H22 C15 0.929 . S
Cu23 N24 1.999 . S
Cu23 O29 1.974 . S
Cu23 N34 1.985 . S
Cu23 O43 1.959 . S
N24 Cu23 1.999 . S
N24 C26 1.263 . S
N24 C28 1.389 . S
N25 C26 1.358 . S
N25 C27 1.400 . S
C26 N24 1.263 . S
C26 N25 1.358 . S
C26 H32 0.930 1_565 S
C27 N25 1.400 . S
C27 C28 1.351 . S
C27 H44 0.930 . S
C28 N24 1.389 . S
C28 C27 1.351 . S
C28 H33 0.930 . S
O29 Cu23 1.974 . S
O29 C39 1.282 1_565 S
C30 O31 1.261 . S
C30 O43 1.251 1_545 S
O31 C30 1.261 . S
H32 C26 0.930 1_545 S
H33 C28 0.930 . S
N34 Cu23 1.985 . S
N34 C36 1.335 . S
N34 C37 1.390 1_565 S
N35 C36 1.345 . S
N35 C38 1.336 1_565 S
C36 N34 1.335 . S
C36 N35 1.345 . S
C36 H41 0.930 . S
C37 N34 1.390 1_545 S
C37 C38 1.346 . S
C37 H42 0.930 . S
C38 N35 1.336 1_545 S
C38 C37 1.346 . S
C38 H45 0.929 . S
C39 O29 1.282 1_545 S
C39 O40 1.216 . S
O40 C39 1.216 . S
H41 C36 0.930 . S
H42 C37 0.930 . S
O43 Cu23 1.959 . S
O43 C30 1.251 1_565 S
H44 C27 0.930 . S
H45 C38 0.929 . S
Cu46 N47 1.999 . S
Cu46 O52 1.974 . S
Cu46 N57 1.985 . S
Cu46 O66 1.959 . S
N47 Cu46 1.999 . S
N47 C49 1.263 . S
N47 C51 1.389 . S
N48 C49 1.358 . S
N48 C50 1.400 . S
C49 N47 1.263 . S
C49 N48 1.358 . S
C49 H55 0.930 1_556 S
C50 N48 1.400 . S
C50 C51 1.351 . S
C50 H67 0.930 . S
C51 N47 1.389 . S
C51 C50 1.351 . S
C51 H56 0.930 . S
O52 Cu46 1.974 . S
O52 C62 1.282 1_556 S
C53 O54 1.261 . S
C53 O66 1.251 1_554 S
O54 C53 1.261 . S
H55 C49 0.930 1_554 S
H56 C51 0.930 . S
N57 Cu46 1.985 . S
N57 C59 1.335 . S
N57 C60 1.390 1_556 S
N58 C59 1.345 . S
N58 C61 1.336 1_556 S
C59 N57 1.335 . S
C59 N58 1.345 . S
C59 H64 0.930 . S
C60 N57 1.390 1_554 S
C60 C61 1.346 . S
C60 H65 0.930 . S
C61 N58 1.336 1_554 S
C61 C60 1.346 . S
C61 H68 0.929 . S
C62 O52 1.282 1_554 S
C62 O63 1.216 . S
O63 C62 1.216 . S
H64 C59 0.930 . S
H65 C60 0.930 . S
O66 Cu46 1.959 . S
O66 C53 1.251 1_556 S
H67 C50 0.930 . S
H68 C61 0.929 . S
C69 O95 1.283 . S
C69 O113 1.283 . S
C70 O96 1.283 . S
C70 O111 1.283 1_455 S
C71 O97 1.283 1_455 S
C71 O114 1.283 . S
C72 O98 1.283 . S
C72 O112 1.283 . S
C73 O99 1.283 1_554 S
C73 O108 1.283 . S
C74 O100 1.283 . S
C74 O110 1.283 . S
C75 O101 1.283 . S
C75 O107 1.283 . S
C76 O102 1.282 . S
C76 O109 1.284 1_554 S
C77 O103 1.283 . S
C77 O118 1.283 . S
C78 O104 1.283 1_545 S
C78 O116 1.283 . S
C79 O105 1.283 . S
C79 O117 1.283 . S
C80 O106 1.283 . S
C80 O115 1.283 . S
Eu81 O82 2.370 1_556 S
Eu81 O83 2.370 1_455 S
Eu81 O86 2.370 . S
Eu81 O87 2.370 1_456 S
Eu81 O95 2.363 . S
Eu81 O96 2.363 1_556 S
Eu81 O109 2.363 1_455 S
Eu81 O110 2.363 . S
O82 Eu81 2.370 1_554 S
O82 Eu84 2.370 1_554 S
O82 Eu89 2.370 1_445 S
O83 Eu81 2.370 1_655 S
O83 Eu85 2.370 1_546 S
O83 Eu88 2.370 1_655 S
Eu84 O82 2.370 1_556 S
Eu84 O86 2.370 . S
Eu84 O90 2.370 1_545 S
Eu84 O91 2.370 1_546 S
Eu84 O99 2.363 1_545 S
Eu84 O100 2.363 . S
Eu84 O115 2.363 . S
Eu84 O116 2.363 1_556 S
Eu85 O83 2.370 1_564 S
Eu85 O87 2.370 1_565 S
Eu85 O92 2.370 . S
Eu85 O93 2.370 1_554 S
Eu85 O101 2.363 . S
Eu85 O102 2.363 1_565 S
Eu85 O117 2.363 1_564 S
Eu85 O118 2.363 . S
O86 Eu81 2.370 . S
O86 Eu84 2.370 . S
O86 Eu88 2.370 . S
O87 Eu81 2.370 1_654 S
O87 Eu85 2.370 1_545 S
O87 Eu89 2.370 1_545 S
Eu88 O83 2.370 1_455 S
Eu88 O86 2.370 . S
Eu88 O90 2.370 1_545 S
Eu88 O93 2.370 1_445 S
Eu88 O105 2.363 1_455 S
Eu88 O106 2.363 . S
Eu88 O113 2.363 . S
Eu88 O114 2.363 1_545 S
Eu89 O82 2.370 1_665 S
Eu89 O87 2.370 1_565 S
Eu89 O91 2.370 1_655 S
Eu89 O92 2.370 . S
Eu89 O103 2.363 . S
Eu89 O104 2.363 1_655 S
Eu89 O111 2.363 1_565 S
Eu89 O112 2.363 . S
O90 Eu84 2.370 1_565 S
O90 Eu88 2.370 1_565 S
O90 Eu94 2.370 1_456 S
O91 Eu84 2.370 1_564 S
O91 Eu89 2.370 1_455 S
O91 Eu94 2.370 1_455 S
O92 Eu85 2.370 . S
O92 Eu89 2.370 . S
O92 Eu94 2.370 . S
O93 Eu85 2.370 1_556 S
O93 Eu88 2.370 1_665 S
O93 Eu94 2.370 1_556 S
Eu94 O90 2.370 1_654 S
Eu94 O91 2.370 1_655 S
Eu94 O92 2.370 . S
Eu94 O93 2.370 1_554 S
Eu94 O97 2.363 1_554 S
Eu94 O98 2.363 . S
Eu94 O107 2.363 . S
Eu94 O108 2.363 1_655 S
O95 C69 1.283 . S
O95 Eu81 2.363 . S
O96 C70 1.283 . S
O96 Eu81 2.363 1_554 S
O97 C71 1.283 1_655 S
O97 Eu94 2.363 1_556 S
O98 C72 1.283 . S
O98 Eu94 2.363 . S
O99 C73 1.283 1_556 S
O99 Eu84 2.363 1_565 S
O100 C74 1.283 . S
O100 Eu84 2.363 . S
O101 C75 1.283 . S
O101 Eu85 2.363 . S
O102 C76 1.282 . S
O102 Eu85 2.363 1_545 S
O103 C77 1.283 . S
O103 Eu89 2.363 . S
O104 C78 1.283 1_565 S
O104 Eu89 2.363 1_455 S
O105 C79 1.283 . S
O105 Eu88 2.363 1_655 S
O106 C80 1.283 . S
O106 Eu88 2.363 . S
O107 C75 1.283 . S
O107 Eu94 2.363 . S
O108 C73 1.283 . S
O108 Eu94 2.363 1_455 S
O109 C76 1.284 1_556 S
O109 Eu81 2.363 1_655 S
O110 C74 1.283 . S
O110 Eu81 2.363 . S
O111 C70 1.283 1_655 S
O111 Eu89 2.363 1_545 S
O112 C72 1.283 . S
O112 Eu89 2.363 . S
O113 C69 1.283 . S
O113 Eu88 2.363 . S
O114 C71 1.283 . S
O114 Eu88 2.363 1_565 S
O115 C80 1.283 . S
O115 Eu84 2.363 . S
O116 C78 1.283 . S
O116 Eu84 2.363 1_554 S
O117 C79 1.283 . S
O117 Eu85 2.363 1_546 S
O118 C77 1.283 . S
O118 Eu85 2.363 . S
C70 N2 1.211 . S
C77 C39 1.933 1_565 S
C72 C7 1.612 . S
C78 N35 1.203 1_545 S
N12 C71 1.040 . S
C80 C30 1.808 . S
C16 C69 1.771 1_655 S
N25 C79 1.373 1_565 S
C62 C74 2.111 1_554 S
N48 C73 1.525 1_556 S
C76 N58 1.381 1_554 S
C75 C53 2.002 . S
