# Generated by pormake.
# Topology nia, (6,6)-cn, num edge types: 1
# Building blocks:
#     Node 0, Type 0, BuildingBlock: FUNLAD_clean_sbu_0, # of connection points: 6
#     Node 1, Type 0, BuildingBlock: FUNLAD_clean_sbu_0, # of connection points: 6
#     Node 2, Type 1, BuildingBlock: MIDCAF_clean_sbu_0, # of connection points: 6
#     Node 3, Type 1, BuildingBlock: MIDCAF_clean_sbu_0, # of connection points: 6
#     Edge 4, Type (0, 1), None
#     Edge 5, Type (0, 1), None
#     Edge 6, Type (0, 1), None
#     Edge 7, Type (0, 1), None
#     Edge 8, Type (0, 1), None
#     Edge 9, Type (0, 1), None
#     Edge 10, Type (0, 1), None
#     Edge 11, Type (0, 1), None
#     Edge 12, Type (0, 1), None
#     Edge 13, Type (0, 1), None
#     Edge 14, Type (0, 1), None
#     Edge 15, Type (0, 1), None
# Relax obj value: 0.248
# Max RMSD: 0.270
# Mean RMSD: 0.185
data_MOF--net-nia--node1-FUNLAD_clean_sbu_0--node2-MIDCAF_clean_sbu_0--edge1-none
_symmetry_space_group_name_H-M    P1
_symmetry_Int_Tables_number       1
_symmetry_cell_setting            triclinic
loop_
_symmetry_equiv_pos_as_xyz
'x, y, z'
_cell_length_a     11.73329
_cell_length_b     11.733453
_cell_length_c     17.611404
_cell_angle_alpha  104.61693
_cell_angle_beta   104.61627
_cell_angle_gamma 110.37333
loop_
_atom_site_label
_atom_site_type_symbol
_atom_site_fract_x
_atom_site_fract_y
_atom_site_fract_z
_atom_type_partial_charge
C0 C 0.16225 0.94484 0.15511 0.0
N1 N 0.2679 0.11483 0.98282 0.0
C2 C 0.37893 0.22021 0.04142 0.0
C3 C 0.47709 0.2879 1.01667 0.0
C4 C 0.46228 0.24476 0.93111 0.0
C5 C 0.34926 0.13247 0.87292 0.0
C6 C 0.25211 0.06983 0.90012 0.0
Zn7 Zn 0.10912 0.04179 1.01263 0.0
C8 C 0.94968 0.75987 0.92811 0.0
N9 N 0.78947 0.91548 0.08874 0.0
C10 C 0.80527 0.96047 0.17145 0.0
C11 C 0.67844 0.81009 0.03015 0.0
C12 C 0.58029 0.7424 0.05491 0.0
C13 C 0.59511 0.78555 0.14047 0.0
C14 C 0.70813 0.89784 0.19866 0.0
Zn15 Zn 0.94826 0.98853 0.05895 0.0
O16 O 0.21195 -0.00658 0.10751 0.0
C17 C 0.10771 0.27045 0.14347 0.0
O18 O 0.05254 0.94053 0.15433 0.0
H19 H 0.6674 0.7759 0.9645 0.0
H20 H 0.38996 0.25439 0.10707 0.0
H21 H 0.89514 0.04287 0.2165 0.0
O22 O 0.16673 0.23477 0.09801 0.0
O23 O 0.0064 0.18389 0.14381 0.0
H24 H 0.16224 0.98743 0.85506 0.0
O25 O 0.84543 0.03689 0.96406 0.0
O26 O 0.00485 0.0898 0.91725 0.0
O27 O 0.89065 0.79554 0.97357 0.0
O28 O 0.05098 0.84643 0.92776 0.0
C29 C 0.89513 0.08548 0.91647 0.0
H30 H 0.56418 0.37232 0.06439 0.0
H31 H 0.33561 0.09339 0.80727 0.0
H32 H 0.4932 0.65798 1.00719 0.0
H33 H 0.72179 0.93691 0.26431 0.0
C34 C 0.099 0.88158 0.41647 0.0
N35 N 0.92901 0.77595 0.58875 0.0
C36 C 0.82363 0.66492 0.53015 0.0
C37 C 0.75594 0.56676 0.55491 0.0
C38 C 0.79908 0.58157 0.64047 0.0
C39 C 0.91137 0.69459 0.69866 0.0
C40 C 0.974 0.79174 0.67146 0.0
Zn41 Zn 0.00205 0.93473 0.55895 0.0
C42 C 0.28398 0.09416 0.64346 0.0
N43 N 0.12836 0.25436 0.48282 0.0
C44 C 0.08337 0.23856 0.40011 0.0
C45 C 0.23375 0.36539 0.54142 0.0
C46 C 0.30144 0.46354 0.51665 0.0
C47 C 0.25829 0.44872 0.4311 0.0
C48 C 0.146 0.3357 0.37291 0.0
Zn49 Zn 0.05531 0.09557 0.51262 0.0
O50 O 0.05042 0.83189 0.46406 0.0
C51 C 0.77338 0.93613 0.42811 0.0
O52 O 0.10331 0.99129 0.41724 0.0
H53 H 0.26794 0.37643 0.60706 0.0
H54 H 0.78945 0.65389 0.46451 0.0
H55 H 0.00097 0.14869 0.35506 0.0
O56 O 0.80907 0.87711 0.47356 0.0
O57 O 0.85994 0.03743 0.42776 0.0
H58 H 0.05641 0.8816 0.71651 0.0
O59 O 0.00695 0.19841 0.60751 0.0
O60 O 0.95404 0.039 0.65432 0.0
O61 O 0.2483 0.15318 0.598 0.0
O62 O 0.19741 -0.00713 0.64381 0.0
C63 C 0.95836 0.14871 0.6551 0.0
H64 H 0.67152 0.47967 0.50719 0.0
H65 H 0.95045 0.70824 0.76431 0.0
H66 H 0.38586 0.55063 0.56438 0.0
H67 H 0.10693 0.32204 0.30726 0.0
Zn68 Zn 0.23332 0.61915 0.13869 0.0
Zn69 Zn 0.42468 0.81051 0.43288 0.0
Zn70 Zn 0.32609 0.71774 0.28579 0.0
C71 C 0.63485 0.911 0.40225 0.0
C72 C 0.32216 0.55742 0.40586 0.0
O73 O 0.22099 0.83476 0.24859 0.0
O74 O 0.2012 0.7629 0.11574 0.0
C75 C 0.48641 0.72168 0.16571 0.0
O76 O 0.54751 0.81792 0.33246 0.0
O77 O 0.59892 0.95315 0.46072 0.0
O78 O 0.42243 0.65772 0.4608 0.0
O79 O 0.2677 0.55925 0.33318 0.0
O80 O 0.38611 0.62142 0.11076 0.0
O81 O 0.48459 0.77613 0.23839 0.0
O82 O 0.22592 0.49632 0.23911 0.0
O83 O 0.09068 0.44491 0.11085 0.0
C84 C 0.13283 0.40899 0.16932 0.0
O85 O 0.20908 0.82284 0.32298 0.0
O86 O 0.28093 0.84261 0.45583 0.0
C87 C 0.19921 0.84594 0.17595 0.0
C88 C 0.19789 0.84461 0.39562 0.0
Zn89 Zn 0.82406 0.41117 0.9329 0.0
Zn90 Zn 0.63267 0.21979 0.63868 0.0
Zn91 Zn 0.73128 0.31256 0.78579 0.0
C92 C 0.73521 0.47287 0.66569 0.0
C93 C 0.42251 0.11929 0.66934 0.0
O94 O 0.83638 0.19555 0.82298 0.0
O95 O 0.85619 0.26743 0.95584 0.0
C96 C 0.92456 0.62133 0.90223 0.0
O97 O 0.78966 0.47104 0.73838 0.0
O98 O 0.63493 0.37257 0.61075 0.0
O99 O 0.45842 0.07717 0.61085 0.0
O100 O 0.50986 0.21238 0.73913 0.0
O101 O 0.96668 0.58542 0.96072 0.0
O102 O 0.83146 0.53398 0.83244 0.0
O103 O 0.5728 0.25418 0.8332 0.0
O104 O 0.67128 0.40891 0.96082 0.0
C105 C 0.57098 0.30863 0.90588 0.0
O106 O 0.84829 0.20746 0.74859 0.0
O107 O 0.77642 0.18767 0.61574 0.0
C108 C 0.85817 0.18438 0.89562 0.0
C109 C 0.85947 0.18568 0.67595 0.0
loop_
_geom_bond_atom_site_label_1
_geom_bond_atom_site_label_2
_geom_bond_distance
_geom_bond_site_symmetry_2
_ccdc_geom_bond_type
C0 O16 1.249 1_565 S
C0 O18 1.254 . S
N1 C2 1.333 . S
N1 C6 1.307 . S
N1 Zn7 2.020 . S
C2 N1 1.333 . S
C2 C3 1.379 . S
C2 H20 0.952 1_556 S
C3 C2 1.379 . S
C3 C4 1.390 . S
C3 H30 0.949 . S
C4 C3 1.390 . S
C4 C5 1.357 . S
C5 C4 1.357 . S
C5 C6 1.370 . S
C5 H31 0.950 . S
C6 N1 1.307 . S
C6 C5 1.370 . S
C6 H24 0.948 . S
Zn7 N1 2.020 . S
Zn7 O16 2.041 1_556 S
Zn7 O22 2.034 1_556 S
Zn7 O26 2.025 . S
Zn7 O28 2.024 1_545 S
C8 O27 1.246 . S
C8 O28 1.249 1_655 S
N9 C10 1.307 . S
N9 C11 1.333 . S
N9 Zn15 2.019 1_565 S
C10 N9 1.307 . S
C10 C14 1.370 . S
C10 H21 0.948 . S
C11 N9 1.333 . S
C11 C12 1.379 . S
C11 H19 0.952 1_554 S
C12 C11 1.379 . S
C12 C13 1.390 . S
C12 H32 0.949 . S
C13 C12 1.390 . S
C13 C14 1.357 . S
C14 C10 1.370 . S
C14 C13 1.357 . S
C14 H33 0.950 . S
Zn15 N9 2.019 1_545 S
Zn15 O18 2.023 1_645 S
Zn15 O23 2.026 1_655 S
Zn15 O25 2.041 1_554 S
Zn15 O27 2.032 1_544 S
O16 C0 1.249 1_545 S
O16 Zn7 2.041 1_554 S
C17 O22 1.246 . S
C17 O23 1.249 . S
O18 C0 1.254 . S
O18 Zn15 2.023 1_465 S
H19 C11 0.952 1_556 S
H20 C2 0.952 1_554 S
H21 C10 0.948 . S
O22 Zn7 2.034 1_554 S
O22 C17 1.246 . S
O23 Zn15 2.026 1_455 S
O23 C17 1.249 . S
H24 C6 0.948 . S
O25 Zn15 2.041 1_556 S
O25 C29 1.251 . S
O26 Zn7 2.025 . S
O26 C29 1.254 1_455 S
O27 C8 1.246 . S
O27 Zn15 2.032 1_566 S
O28 Zn7 2.024 1_565 S
O28 C8 1.249 1_455 S
C29 O25 1.251 . S
C29 O26 1.254 1_655 S
H30 C3 0.949 . S
H31 C5 0.950 . S
H32 C12 0.949 . S
H33 C14 0.950 . S
C34 O50 1.251 . S
C34 O52 1.254 . S
N35 C36 1.333 . S
N35 C40 1.307 . S
N35 Zn41 2.020 . S
C36 N35 1.333 . S
C36 C37 1.379 . S
C36 H54 0.952 . S
C37 C36 1.379 . S
C37 C38 1.390 . S
C37 H64 0.949 . S
C38 C37 1.390 . S
C38 C39 1.357 . S
C39 C38 1.357 . S
C39 C40 1.370 . S
C39 H65 0.950 . S
C40 N35 1.307 . S
C40 C39 1.370 . S
C40 H58 0.948 . S
Zn41 N35 2.020 . S
Zn41 O50 2.039 1_655 S
Zn41 O56 2.034 . S
Zn41 O60 2.025 1_565 S
Zn41 O62 2.024 1_665 S
C42 O61 1.246 . S
C42 O62 1.249 . S
N43 C44 1.307 . S
N43 C45 1.333 . S
N43 Zn49 2.020 . S
C44 N43 1.307 . S
C44 C48 1.370 . S
C44 H55 0.948 . S
C45 N43 1.333 . S
C45 C46 1.379 . S
C45 H53 0.952 . S
C46 C45 1.379 . S
C46 C47 1.390 . S
C46 H66 0.949 . S
C47 C46 1.390 . S
C47 C48 1.357 . S
C48 C44 1.370 . S
C48 C47 1.357 . S
C48 H67 0.950 . S
Zn49 N43 2.020 . S
Zn49 O52 2.025 1_545 S
Zn49 O57 2.024 1_455 S
Zn49 O59 2.039 1_455 S
Zn49 O61 2.034 . S
O50 C34 1.251 . S
O50 Zn41 2.039 1_455 S
C51 O56 1.246 . S
C51 O57 1.249 1_565 S
O52 C34 1.254 . S
O52 Zn49 2.025 1_565 S
H53 C45 0.952 . S
H54 C36 0.952 . S
H55 C44 0.948 . S
O56 Zn41 2.034 . S
O56 C51 1.246 . S
O57 Zn49 2.024 1_655 S
O57 C51 1.249 1_545 S
H58 C40 0.948 . S
O59 Zn49 2.039 1_655 S
O59 C63 1.251 . S
O60 Zn41 2.025 1_545 S
O60 C63 1.254 . S
O61 C42 1.246 . S
O61 Zn49 2.034 . S
O62 Zn41 2.024 1_445 S
O62 C42 1.249 . S
C63 O59 1.251 . S
C63 O60 1.254 . S
H64 C37 0.949 . S
H65 C39 0.950 . S
H66 C46 0.949 . S
H67 C48 0.950 . S
Zn68 O74 1.920 . S
Zn68 O80 1.898 . S
Zn68 O83 1.905 . S
Zn69 O77 1.905 . S
Zn69 O78 1.898 . S
Zn69 O86 1.920 . S
Zn70 O73 2.080 . S
Zn70 O76 2.114 . S
Zn70 O79 2.120 . S
Zn70 O81 2.120 . S
Zn70 O82 2.114 . S
Zn70 O85 2.080 . S
C71 O76 1.166 . S
C71 O77 1.182 . S
C72 O78 1.167 . S
C72 O79 1.299 . S
O73 Zn70 2.080 . S
O73 C87 1.305 . S
O74 Zn68 1.920 . S
O74 C87 1.234 . S
C75 O80 1.167 . S
C75 O81 1.299 . S
O76 Zn70 2.114 . S
O76 C71 1.166 . S
O77 Zn69 1.905 . S
O77 C71 1.182 . S
O78 Zn69 1.898 . S
O78 C72 1.167 . S
O79 Zn70 2.120 . S
O79 C72 1.299 . S
O80 Zn68 1.898 . S
O80 C75 1.167 . S
O81 Zn70 2.120 . S
O81 C75 1.299 . S
O82 Zn70 2.114 . S
O82 C84 1.166 . S
O83 Zn68 1.905 . S
O83 C84 1.182 . S
C84 O82 1.166 . S
C84 O83 1.182 . S
O85 Zn70 2.080 . S
O85 C88 1.305 . S
O86 Zn69 1.920 . S
O86 C88 1.234 . S
C87 O73 1.305 . S
C87 O74 1.234 . S
C88 O85 1.305 . S
C88 O86 1.234 . S
Zn89 O95 1.920 . S
Zn89 O101 1.898 . S
Zn89 O104 1.905 . S
Zn90 O98 1.905 . S
Zn90 O99 1.898 . S
Zn90 O107 1.920 . S
Zn91 O94 2.080 . S
Zn91 O97 2.114 . S
Zn91 O100 2.120 . S
Zn91 O102 2.120 . S
Zn91 O103 2.114 . S
Zn91 O106 2.080 . S
C92 O97 1.166 . S
C92 O98 1.182 . S
C93 O99 1.167 . S
C93 O100 1.299 . S
O94 Zn91 2.080 . S
O94 C108 1.305 . S
O95 Zn89 1.920 . S
O95 C108 1.234 . S
C96 O101 1.167 . S
C96 O102 1.299 . S
O97 Zn91 2.114 . S
O97 C92 1.166 . S
O98 Zn90 1.905 . S
O98 C92 1.182 . S
O99 Zn90 1.898 . S
O99 C93 1.167 . S
O100 Zn91 2.120 . S
O100 C93 1.299 . S
O101 Zn89 1.898 . S
O101 C96 1.167 . S
O102 Zn91 2.120 . S
O102 C96 1.299 . S
O103 Zn91 2.114 . S
O103 C105 1.166 . S
O104 Zn89 1.905 . S
O104 C105 1.182 . S
C105 O103 1.166 . S
C105 O104 1.182 . S
O106 Zn91 2.080 . S
O106 C109 1.305 . S
O107 Zn90 1.920 . S
O107 C109 1.234 . S
C108 O94 1.305 . S
C108 O95 1.234 . S
C109 O106 1.305 . S
C109 O107 1.234 . S
C0 C87 2.275 . S
C42 C93 2.682 . S
C17 C84 2.122 . S
C63 C109 1.294 . S
C13 C75 0.775 . S
C92 C38 1.298 . S
C34 C88 2.275 . S
C105 C4 1.298 . S
C72 C47 0.775 . S
C108 C29 1.294 . S
C71 C51 2.122 . S
C96 C8 2.682 . S
