# Generated by pormake.
# Topology bcu-b, (8,8)-cn, num edge types: 1
# Building blocks:
#     Node 0, Type 0, BuildingBlock: VETTIZ_charged_sbu_0, # of connection points: 8
#     Node 1, Type 1, BuildingBlock: GIZVER_clean_sbu_0, # of connection points: 8
#     Edge 2, Type (0, 1), None
#     Edge 3, Type (0, 1), None
#     Edge 4, Type (0, 1), None
#     Edge 5, Type (0, 1), None
#     Edge 6, Type (0, 1), None
#     Edge 7, Type (0, 1), None
#     Edge 8, Type (0, 1), None
#     Edge 9, Type (0, 1), None
# Relax obj value: 0.092
# Max RMSD: 0.145
# Mean RMSD: 0.141
data_MOF--net-bcu-b--node1-VETTIZ_charged_sbu_0--node2-GIZVER_clean_sbu_0--edge1-none
_symmetry_space_group_name_H-M    P1
_symmetry_Int_Tables_number       1
_symmetry_cell_setting            triclinic
loop_
_symmetry_equiv_pos_as_xyz
'x, y, z'
_cell_length_a     10.173058
_cell_length_b     12.159277
_cell_length_c     8.7355583
_cell_angle_alpha  89.675874
_cell_angle_beta   92.212885
_cell_angle_gamma 109.83557
loop_
_atom_site_label
_atom_site_type_symbol
_atom_site_fract_x
_atom_site_fract_y
_atom_site_fract_z
_atom_type_partial_charge
Fe0 Fe 1.01534 0.8834 1.01382 0.0
O1 O 0.12882 1.0111 0.15698 0.0
Fe2 Fe 1.02379 0.03615 0.67256 0.0
Fe3 Fe 0.09986 1.00423 0.37991 0.0
O4 O 0.9917 1.01655 0.89359 0.0
O5 O 0.99482 0.02928 0.89549 0.0
O6 O 0.13194 0.02383 0.15887 0.0
Fe7 Fe 0.10831 0.15698 0.03864 0.0
C8 C 0.81866 0.82227 0.26041 0.0
O9 O 0.07101 0.76586 0.16196 0.0
O10 O 0.19453 0.88396 0.36236 0.0
O11 O 0.2881 0.17651 0.92586 0.0
O12 O 0.21097 0.17827 0.68634 0.0
O13 O 0.1232 0.91288 0.65825 0.0
O14 O 0.18851 0.88734 0.89652 0.0
O15 O 0.27908 0.14263 0.38446 0.0
O16 O 0.24328 0.27038 0.20355 0.0
C17 C 0.18341 0.86489 0.75409 0.0
O18 O 1.05263 0.27451 0.8905 0.0
O19 O 0.92912 0.15642 0.69011 0.0
O20 O 0.83555 0.86386 0.12661 0.0
O21 O 0.91268 0.86211 0.36613 0.0
C22 C 0.16454 0.79289 0.27586 0.0
C23 C 0.31629 0.2407 0.31243 0.0
C24 C 0.94024 0.17548 0.29838 0.0
O25 O 1.00045 0.1275 0.39421 0.0
O26 O 0.93514 0.15304 0.15595 0.0
C27 C 0.30499 0.2181 0.79206 0.0
O28 O 0.84457 0.89775 0.668 0.0
O29 O 0.88037 0.77 0.84891 0.0
C30 C 0.95911 0.24749 0.77661 0.0
C31 C 0.80736 0.79967 0.74003 0.0
Co32 Co 0.72255 0.32235 0.44444 0.0
Co33 Co 0.72314 0.39909 0.73042 0.0
Co34 Co 0.56182 0.52019 0.52623 0.0
O35 O 0.72954 0.46879 0.53637 0.0
H36 H 0.8173 0.53159 0.52467 0.0
O37 O 0.39411 0.57159 0.5161 0.0
Co38 Co 0.4011 0.71802 0.60802 0.0
Co39 Co 0.40051 0.64129 0.32205 0.0
H40 H 0.30635 0.50879 0.52779 0.0
O41 O 0.88942 0.41098 0.82711 0.0
O42 O 0.75549 0.27172 0.6578 0.0
O43 O 0.54816 0.32466 0.83033 0.0
O44 O 0.43251 0.38233 0.64476 0.0
O45 O 0.63263 0.61422 0.71466 0.0
O46 O 0.40294 0.85295 0.69072 0.0
O47 O 0.21564 0.6924 0.63976 0.0
O48 O 0.5957 0.76601 0.60348 0.0
O49 O 0.69114 0.65805 0.40771 0.0
O50 O 0.57549 0.71572 0.22214 0.0
O51 O 0.36815 0.76866 0.39466 0.0
O52 O 0.23423 0.6294 0.22536 0.0
C53 C 0.85386 0.24083 0.35768 0.0
C54 C 0.45708 0.31645 0.35573 0.0
C55 C 0.43522 0.31508 0.75694 0.0
C56 C 0.86778 0.31589 0.74837 0.0
C57 C 0.26979 0.79955 0.69479 0.0
C58 C 0.66656 0.72393 0.69673 0.0
C59 C 0.68843 0.7253 0.29552 0.0
C60 C 0.25586 0.72448 0.30409 0.0
O61 O 0.7207 0.18743 0.36175 0.0
O62 O 0.90801 0.34798 0.41271 0.0
O63 O 0.49101 0.42616 0.33781 0.0
O64 O 0.52794 0.27437 0.44899 0.0
loop_
_geom_bond_atom_site_label_1
_geom_bond_atom_site_label_2
_geom_bond_distance
_geom_bond_site_symmetry_2
_ccdc_geom_bond_type
Fe0 O1 1.886 . S
Fe0 O4 1.715 1_554 S
Fe0 O9 2.077 1_655 S
Fe0 O14 1.935 1_654 S
Fe0 O20 2.077 . S
Fe0 O29 1.935 1_554 S
O1 Fe0 1.886 . S
O1 Fe3 1.715 1_655 S
Fe2 O4 1.886 1_545 S
Fe2 O5 1.715 1_655 S
Fe2 O12 1.935 1_655 S
Fe2 O13 2.077 1_645 S
Fe2 O19 1.935 . S
Fe2 O28 2.077 1_545 S
Fe3 O1 1.715 1_455 S
Fe3 O6 1.886 1_565 S
Fe3 O10 1.935 . S
Fe3 O15 2.077 1_565 S
Fe3 O21 1.935 1_455 S
Fe3 O25 2.077 1_465 S
O4 Fe0 1.715 1_556 S
O4 Fe2 1.886 1_565 S
O5 Fe2 1.715 1_455 S
O5 Fe7 1.886 . S
O6 Fe3 1.886 1_545 S
O6 Fe7 1.715 1_554 S
Fe7 O5 1.886 . S
Fe7 O6 1.715 1_556 S
Fe7 O11 2.077 . S
Fe7 O16 1.935 1_556 S
Fe7 O18 2.077 1_455 S
Fe7 O26 1.935 1_456 S
C8 O20 1.381 . S
C8 O21 1.421 . S
O9 Fe0 2.077 1_455 S
O9 C22 1.381 . S
O10 Fe3 1.935 . S
O10 C22 1.421 . S
O11 Fe7 2.077 . S
O11 C27 1.381 . S
O12 Fe2 1.935 1_455 S
O12 C27 1.421 . S
O13 Fe2 2.077 1_465 S
O13 C17 1.381 . S
O14 Fe0 1.935 1_456 S
O14 C17 1.421 . S
O15 Fe3 2.077 1_545 S
O15 C23 1.381 . S
O16 Fe7 1.935 1_554 S
O16 C23 1.421 . S
C17 O13 1.381 . S
C17 O14 1.421 . S
O18 Fe7 2.077 1_655 S
O18 C30 1.381 . S
O19 Fe2 1.935 . S
O19 C30 1.421 . S
O20 Fe0 2.077 . S
O20 C8 1.381 . S
O21 Fe3 1.935 1_655 S
O21 C8 1.421 . S
C22 O9 1.381 . S
C22 O10 1.421 . S
C23 O15 1.381 . S
C23 O16 1.421 . S
C24 O25 1.381 . S
C24 O26 1.421 . S
O25 Fe3 2.077 1_645 S
O25 C24 1.381 . S
O26 Fe7 1.935 1_654 S
O26 C24 1.421 . S
C27 O11 1.381 . S
C27 O12 1.421 . S
O28 Fe2 2.077 1_565 S
O28 C31 1.381 . S
O29 Fe0 1.935 1_556 S
O29 C31 1.421 . S
C30 O18 1.381 . S
C30 O19 1.421 . S
C31 O28 1.381 . S
C31 O29 1.421 . S
Co32 O35 2.042 . S
Co32 O42 2.264 . S
Co32 O61 2.286 . S
Co32 O62 2.069 . S
Co32 O64 2.015 . S
Co33 O35 2.122 . S
Co33 O41 2.073 . S
Co33 O42 2.327 . S
Co33 O43 1.976 . S
Co34 O35 2.087 . S
Co34 O37 2.087 . S
Co34 O44 2.111 . S
Co34 O45 2.143 . S
Co34 O49 2.111 . S
Co34 O63 2.143 . S
O35 Co32 2.042 . S
O35 Co33 2.122 . S
O35 Co34 2.087 . S
O35 H36 0.980 . S
H36 O35 0.980 . S
O37 Co34 2.087 . S
O37 Co38 2.042 . S
O37 Co39 2.122 . S
O37 H40 0.980 . S
Co38 O37 2.042 . S
Co38 O46 2.286 . S
Co38 O47 2.069 . S
Co38 O48 2.015 . S
Co38 O51 2.264 . S
Co39 O37 2.122 . S
Co39 O50 1.976 . S
Co39 O51 2.327 . S
Co39 O52 2.073 . S
H40 O37 0.980 . S
O41 Co33 2.073 . S
O41 C56 1.245 . S
O42 Co32 2.264 . S
O42 Co33 2.327 . S
O42 C56 1.257 . S
O43 Co33 1.976 . S
O43 C55 1.251 . S
O44 Co34 2.111 . S
O44 C55 1.274 . S
O45 Co34 2.143 . S
O45 C58 1.246 . S
O46 Co38 2.286 . S
O46 C57 1.259 . S
O47 Co38 2.069 . S
O47 C57 1.289 . S
O48 Co38 2.015 . S
O48 C58 1.257 . S
O49 Co34 2.111 . S
O49 C59 1.274 . S
O50 Co39 1.976 . S
O50 C59 1.251 . S
O51 Co38 2.264 . S
O51 Co39 2.327 . S
O51 C60 1.257 . S
O52 Co39 2.073 . S
O52 C60 1.245 . S
C53 O61 1.259 . S
C53 O62 1.289 . S
C54 O63 1.246 . S
C54 O64 1.257 . S
C55 O43 1.251 . S
C55 O44 1.274 . S
C56 O41 1.245 . S
C56 O42 1.257 . S
C57 O46 1.259 . S
C57 O47 1.289 . S
C58 O45 1.246 . S
C58 O48 1.257 . S
C59 O49 1.274 . S
C59 O50 1.251 . S
C60 O51 1.257 . S
C60 O52 1.245 . S
O61 Co32 2.286 . S
O61 C53 1.259 . S
O62 Co32 2.069 . S
O62 C53 1.289 . S
O63 Co34 2.143 . S
O63 C54 1.246 . S
O64 Co32 2.015 . S
O64 C54 1.257 . S
C23 C54 1.603 . S
C24 C53 1.529 . S
C8 C59 1.516 . S
C22 C60 1.444 . S
C17 C57 1.530 . S
C55 C27 1.517 . S
C30 C56 1.445 . S
C58 C31 1.604 . S
