# Generated by pormake.
# Topology scu, (8,4)-cn, num edge types: 1
# Building blocks:
#     Node 0, Type 0, BuildingBlock: VETTIZ_charged_sbu_0, # of connection points: 8
#     Node 1, Type 1, BuildingBlock: ESEHIV_clean_sbu_0, # of connection points: 4
#     Node 2, Type 1, BuildingBlock: ESEHIV_clean_sbu_0, # of connection points: 4
#     Edge 3, Type (0, 1), BuildingBlock: CIFDUS_clean_linker_0, # of connection points: 2
#     Edge 4, Type (0, 1), BuildingBlock: CIFDUS_clean_linker_0, # of connection points: 2
#     Edge 5, Type (0, 1), BuildingBlock: CIFDUS_clean_linker_0, # of connection points: 2
#     Edge 6, Type (0, 1), BuildingBlock: CIFDUS_clean_linker_0, # of connection points: 2
#     Edge 7, Type (0, 1), BuildingBlock: CIFDUS_clean_linker_0, # of connection points: 2
#     Edge 8, Type (0, 1), BuildingBlock: CIFDUS_clean_linker_0, # of connection points: 2
#     Edge 9, Type (0, 1), BuildingBlock: CIFDUS_clean_linker_0, # of connection points: 2
#     Edge 10, Type (0, 1), BuildingBlock: CIFDUS_clean_linker_0, # of connection points: 2
# Relax obj value: 0.004
# Max RMSD: 0.097
# Mean RMSD: 0.075
data_MOF--net-scu--node1-VETTIZ_charged_sbu_0--node2-ESEHIV_clean_sbu_0--edge1-CIFDUS_clean_linker_0
_symmetry_space_group_name_H-M    P1
_symmetry_Int_Tables_number       1
_symmetry_cell_setting            triclinic
loop_
_symmetry_equiv_pos_as_xyz
'x, y, z'
_cell_length_a     22.734411
_cell_length_b     23.377106
_cell_length_c     17.963534
_cell_angle_alpha  93.729715
_cell_angle_beta   94.751542
_cell_angle_gamma 90.01686
loop_
_atom_site_label
_atom_site_type_symbol
_atom_site_fract_x
_atom_site_fract_y
_atom_site_fract_z
_atom_type_partial_charge
Fe0 Fe 1.02633 0.02443 0.09052 0.0
O1 O 1.01416 0.08403 0.01551 0.0
Fe2 Fe 0.08581 0.91079 0.98742 0.0
Fe3 Fe 0.95131 0.14182 0.01647 0.0
O4 O 1.02757 0.9711 -0.00073 0.0
O5 O 1.02619 0.97112 0.99143 0.0
O6 O 1.01473 0.08463 0.00767 0.0
Fe7 Fe 1.01753 0.03082 0.91674 0.0
C8 C 0.8965 0.04493 0.09997 0.0
O9 O 1.02223 0.08999 0.17649 0.0
O10 O 0.99929 0.17106 0.113 0.0
O11 O 0.10832 0.04085 0.91723 0.0
O12 O 0.13205 0.94829 0.91063 0.0
O13 O 0.14492 0.94744 0.071 0.0
O14 O 0.11613 0.03768 0.09595 0.0
O15 O 0.99989 0.1793 0.94075 0.0
O16 O 1.01046 0.10382 0.85259 0.0
C17 C 0.15539 0.99881 0.09769 0.0
O18 O 1.01857 0.96395 0.83172 0.0
O19 O 1.02933 0.88196 0.89727 0.0
O20 O 0.93783 1.00963 0.08932 0.0
O21 O 0.89986 0.09746 0.08485 0.0
C22 C 1.01559 0.14521 0.17288 0.0
C23 C 1.01404 0.15811 0.87583 0.0
C24 C 0.88996 0.059 0.89687 0.0
O25 O 0.89959 0.10999 0.92353 0.0
O26 O 0.92727 1.01956 0.90903 0.0
C27 C 0.14382 1.00035 0.90194 0.0
O28 O 0.04349 0.87678 0.07088 0.0
O29 O 0.03998 0.95351 0.15758 0.0
C30 C 1.0145 0.90855 0.83715 0.0
C31 C 0.04151 0.89867 0.13873 0.0
Cu32 Cu 0.0557 0.52872 0.51891 0.0
N33 N 0.09861 0.49526 0.59748 0.0
N34 N 0.11896 0.43029 0.68147 0.0
C35 C 0.08105 0.44674 0.62546 0.0
C36 C 0.16195 0.47064 0.69004 0.0
C37 C 0.14942 0.51069 0.63756 0.0
O38 O 1.01781 0.46529 0.45816 0.0
C39 C 1.02971 0.63171 0.58697 0.0
O40 O 0.08723 0.63538 0.58541 0.0
H41 H 0.04044 0.42441 0.60574 0.0
H42 H 0.17526 0.54829 0.62942 0.0
N43 N 0.10227 0.56801 0.45813 0.0
N44 N 0.12544 0.63569 0.38333 0.0
C45 C 0.08235 0.61186 0.41828 0.0
C46 C 0.16002 0.56338 0.44768 0.0
C47 C 0.17441 0.60501 0.40095 0.0
C48 C 0.05282 0.42499 0.44023 0.0
O49 O 0.10953 0.43133 0.45991 0.0
H50 H 0.037 0.62623 0.41554 0.0
H51 H 0.18961 0.53266 0.47314 0.0
O52 O 1.00337 0.58538 0.56203 0.0
H53 H 0.1997 0.47104 0.73097 0.0
H54 H 0.2177 0.61284 0.38262 0.0
Cu55 Cu 0.51535 0.04007 0.49643 0.0
N56 N 0.46605 0.99702 0.54995 0.0
N57 N 0.39331 0.98503 0.6238 0.0
C58 C 0.4183 0.02041 0.57922 0.0
C59 C 0.42637 0.93708 0.62239 0.0
C60 C 0.47117 0.94442 0.57618 0.0
O61 O 0.4603 0.08317 0.43208 0.0
C62 C 0.60576 0.04119 0.60226 0.0
O63 O 0.59681 0.98689 0.58097 0.0
H64 H 0.40397 0.06387 0.57097 0.0
H65 H 0.50602 0.91443 0.56496 0.0
N66 N 0.56183 0.99967 0.42966 0.0
N67 N 0.62575 0.99151 0.34134 0.0
C68 C 0.59708 0.0275 0.38746 0.0
C69 C 0.56823 0.9436 0.41017 0.0
C70 C 0.60792 0.93842 0.35567 0.0
C71 C 0.43153 0.04705 0.38644 0.0
O72 O 0.44241 0.99223 0.39202 0.0
H73 H 0.60187 0.07367 0.39158 0.0
H74 H 0.54538 0.90914 0.43324 0.0
O75 O 0.57232 0.07827 0.57107 0.0
H76 H 0.41925 0.8999 0.6535 0.0
H77 H 0.62179 0.89874 0.32816 0.0
H78 H 0.94368 0.22923 0.2153 0.0
H79 H 0.10819 0.14781 0.28122 0.0
H80 H 0.13192 0.22666 0.37628 0.0
H81 H 0.111 0.32417 0.42777 0.0
H82 H 0.94694 0.40585 0.35861 0.0
H83 H 0.91746 0.32095 0.27728 0.0
C84 C 0.98424 0.22831 0.25161 0.0
C85 C 1.02457 0.18345 0.24122 0.0
C86 C 0.99783 0.27406 0.30434 0.0
C87 C 0.07657 0.18194 0.28871 0.0
C88 C 0.09028 0.22726 0.3423 0.0
C89 C 0.06857 0.32325 0.39528 0.0
C90 C 1.03163 0.37167 0.39786 0.0
C91 C 0.05216 0.27447 0.34853 0.0
C92 C 0.97629 0.36938 0.35695 0.0
C93 C 0.95951 0.32092 0.31046 0.0
H94 H 0.79923 0.10544 0.13888 0.0
H95 H 0.87842 0.93769 0.14628 0.0
H96 H 0.80027 0.90555 0.21844 0.0
H97 H 0.71296 0.92647 0.287 0.0
H98 H 0.63247 0.09329 0.27771 0.0
H99 H 0.70752 0.12401 0.19968 0.0
C100 C 0.79915 0.06169 0.15558 0.0
C101 C 0.84515 0.02443 0.13731 0.0
C102 C 0.75402 0.04323 0.19771 0.0
C103 C 0.84391 0.9677 0.15947 0.0
C104 C 0.79918 0.94912 0.20108 0.0
C105 C 0.71122 0.96923 0.2671 0.0
C106 C 0.66742 1.0076 0.28962 0.0
C107 C 0.7545 0.98674 0.22159 0.0
C108 C 0.66634 0.06308 0.26319 0.0
C109 C 0.70913 0.08071 0.21795 0.0
H110 H 0.1183 0.8126 0.13675 0.0
H111 H 0.98992 0.89315 0.27229 0.0
H112 H 1.00591 0.81846 0.36253 0.0
H113 H 0.05401 0.72753 0.3986 0.0
H114 H 0.18364 0.65053 0.26158 0.0
H115 H 0.16988 0.72711 0.17585 0.0
C116 C 0.09358 0.8138 0.186 0.0
C117 C 0.05211 0.85749 0.19735 0.0
C118 C 0.10339 0.77145 0.23703 0.0
C119 C 1.02174 0.85962 0.26233 0.0
C120 C 1.03081 0.81688 0.31355 0.0
C121 C 0.07909 0.72763 0.34985 0.0
C122 C 0.11949 0.6831 0.33593 0.0
C123 C 0.07101 0.77212 0.30083 0.0
C124 C 0.15265 0.68435 0.27359 0.0
C125 C 0.14453 0.72794 0.22442 0.0
H126 H 0.18842 0.08477 0.20546 0.0
H127 H 0.25585 0.94024 0.0769 0.0
H128 H 0.3519 0.95286 0.14509 0.0
H129 H 0.41254 0.99487 0.2513 0.0
H130 H 0.34532 0.13053 0.39377 0.0
H131 H 0.25421 0.13281 0.30945 0.0
C132 C 0.22451 0.05678 0.19167 0.0
C133 C 0.21483 1.01177 0.13554 0.0
C134 C 0.27966 0.0626 0.23394 0.0
C135 C 0.26191 0.97545 0.11905 0.0
C136 C 0.31698 0.98247 0.15831 0.0
C137 C 0.37845 0.02591 0.26308 0.0
C138 C 0.38527 0.06225 0.32858 0.0
C139 C 0.32573 0.02458 0.21717 0.0
C140 C 0.34118 0.1025 0.34316 0.0
C141 C 0.28883 0.10311 0.29552 0.0
H142 H 0.95036 0.81069 0.82579 0.0
H143 H 0.04764 0.92157 0.69692 0.0
H144 H 0.0503 0.84547 0.59712 0.0
H145 H 0.04403 0.74215 0.56132 0.0
H146 H 0.94935 0.63033 0.69149 0.0
H147 H 0.92532 0.71227 0.77568 0.0
C148 C 0.97054 0.81862 0.77474 0.0
C149 C 0.9998 0.87103 0.76901 0.0
C150 C 0.97297 0.7743 0.71861 0.0
C151 C 1.025 0.88147 0.70248 0.0
C152 C 1.02704 0.83777 0.64583 0.0
C153 C 1.01644 0.73624 0.60677 0.0
C154 C 0.99905 0.68065 0.62135 0.0
C155 C 1.00404 0.7832 0.65537 0.0
C156 C 0.96298 0.67296 0.67953 0.0
C157 C 0.94987 0.71967 0.72797 0.0
H158 H 0.15885 0.04983 0.77139 0.0
H159 H 0.25169 0.96858 0.95426 0.0
H160 H 0.33902 0.95766 0.88477 0.0
H161 H 0.38501 0.96097 0.76633 0.0
H162 H 0.29354 0.04099 0.58149 0.0
H163 H 0.20966 0.0623 0.65618 0.0
C164 C 0.19905 0.03178 0.79672 0.0
C165 C 0.19942 1.01083 0.86833 0.0
C166 C 0.24866 0.0238 0.75499 0.0
C167 C 0.25103 0.9859 0.89989 0.0
C168 C 0.30064 0.97889 0.85967 0.0
C169 C 0.34661 0.983 0.74264 0.0
C170 C 0.34475 0.99847 0.66837 0.0
C171 C 0.2992 0.99572 0.7862 0.0
C172 C 0.29553 0.02835 0.63857 0.0
C173 C 0.24772 0.04061 0.68128 0.0
H174 H 0.07767 0.25355 0.91857 0.0
H175 H 1.00116 0.15595 0.72225 0.0
H176 H 1.03061 0.23107 0.64323 0.0
H177 H 0.07202 0.32767 0.63197 0.0
H178 H 0.14935 0.42361 0.82904 0.0
H179 H 0.12643 0.34538 0.90612 0.0
C180 C 0.06754 0.2486 0.8584 0.0
C181 C 0.03634 0.19983 0.82627 0.0
C182 C 0.0848 0.29159 0.81376 0.0
C183 C 1.02486 0.19326 0.7482 0.0
C184 C 0.0415 0.23626 0.70318 0.0
C185 C 0.08398 0.33122 0.69178 0.0
C186 C 0.11167 0.38161 0.72508 0.0
C187 C 0.07048 0.2861 0.73561 0.0
C188 C 0.12821 0.38525 0.80225 0.0
C189 C 0.11474 0.34072 0.8463 0.0
H190 H 0.81081 0.13575 0.83878 0.0
H191 H 0.84853 0.95452 0.83837 0.0
H192 H 0.7633 0.93424 0.74902 0.0
H193 H 0.68057 0.96734 0.66927 0.0
H194 H 0.64212 0.14799 0.66491 0.0
H195 H 0.72565 0.16916 0.75851 0.0
C196 C 0.8002 0.09173 0.81962 0.0
C197 C 0.8362 0.04667 0.84558 0.0
C198 C 0.75134 0.08035 0.76733 0.0
C199 C 0.82182 0.99002 0.81958 0.0
C200 C 0.77308 0.97838 0.76835 0.0
C201 C 0.69004 1.01155 0.6886 0.0
C202 C 0.65499 0.05612 0.65984 0.0
C203 C 0.73795 0.02318 0.74155 0.0
C204 C 0.66832 0.11293 0.68595 0.0
C205 C 0.71606 0.12495 0.73944 0.0
loop_
_geom_bond_atom_site_label_1
_geom_bond_atom_site_label_2
_geom_bond_distance
_geom_bond_site_symmetry_2
_ccdc_geom_bond_type
Fe0 O1 1.886 1_455 S
Fe0 O4 1.715 1_545 S
Fe0 O9 2.077 . S
Fe0 O14 1.935 . S
Fe0 O20 2.077 1_455 S
Fe0 O29 1.935 1_445 S
O1 Fe0 1.886 1_655 S
O1 Fe3 1.715 . S
Fe2 O4 1.886 . S
Fe2 O5 1.715 1_554 S
Fe2 O12 1.935 1_554 S
Fe2 O13 2.077 . S
Fe2 O19 1.935 1_554 S
Fe2 O28 2.077 . S
Fe3 O1 1.715 . S
Fe3 O6 1.886 1_554 S
Fe3 O10 1.935 . S
Fe3 O15 2.077 1_554 S
Fe3 O21 1.935 . S
Fe3 O25 2.077 1_554 S
O4 Fe0 1.715 1_565 S
O4 Fe2 1.886 . S
O5 Fe2 1.715 1_556 S
O5 Fe7 1.886 . S
O6 Fe3 1.886 1_556 S
O6 Fe7 1.715 1_645 S
Fe7 O5 1.886 . S
Fe7 O6 1.715 1_465 S
Fe7 O11 2.078 1_565 S
Fe7 O16 1.935 1_565 S
Fe7 O18 2.077 1_455 S
Fe7 O26 1.934 1_455 S
C8 O20 1.381 . S
C8 O21 1.421 . S
O9 Fe0 2.077 . S
O9 C22 1.381 1_455 S
O10 Fe3 1.935 . S
O10 C22 1.421 . S
O11 Fe7 2.078 1_545 S
O11 C27 1.375 1_545 S
O12 Fe2 1.935 1_556 S
O12 C27 1.421 . S
O13 Fe2 2.077 . S
O13 C17 1.381 . S
O14 Fe0 1.935 . S
O14 C17 1.421 1_545 S
O15 Fe3 2.077 1_556 S
O15 C23 1.381 . S
O16 Fe7 1.935 1_545 S
O16 C23 1.421 1_455 S
C17 O13 1.381 . S
C17 O14 1.421 1_565 S
O18 Fe7 2.077 1_655 S
O18 C30 1.381 1_655 S
O19 Fe2 1.935 1_556 S
O19 C30 1.421 . S
O20 Fe0 2.077 1_655 S
O20 C8 1.381 . S
O21 Fe3 1.935 . S
O21 C8 1.421 . S
C22 O9 1.381 1_655 S
C22 O10 1.421 . S
C23 O15 1.381 . S
C23 O16 1.421 1_655 S
C24 O25 1.381 . S
C24 O26 1.421 1_545 S
O25 Fe3 2.077 1_556 S
O25 C24 1.381 . S
O26 Fe7 1.934 1_655 S
O26 C24 1.421 1_565 S
C27 O11 1.375 1_565 S
C27 O12 1.421 . S
O28 Fe2 2.077 . S
O28 C31 1.381 . S
O29 Fe0 1.935 1_665 S
O29 C31 1.421 1_655 S
C30 O18 1.381 1_455 S
C30 O19 1.421 . S
C31 O28 1.381 . S
C31 O29 1.421 1_455 S
Cu32 N33 1.999 . S
Cu32 O38 1.974 . S
Cu32 N43 1.985 . S
Cu32 O52 1.959 . S
N33 Cu32 1.999 . S
N33 C35 1.263 . S
N33 C37 1.389 . S
N34 C35 1.358 . S
N34 C36 1.400 . S
C35 N33 1.263 . S
C35 N34 1.358 . S
C35 H41 0.930 1_655 S
C36 N34 1.400 . S
C36 C37 1.351 . S
C36 H53 0.930 . S
C37 N33 1.389 . S
C37 C36 1.351 . S
C37 H42 0.930 . S
O38 Cu32 1.974 . S
O38 C48 1.282 1_655 S
C39 O40 1.261 . S
C39 O52 1.251 1_455 S
O40 C39 1.261 . S
H41 C35 0.930 1_455 S
H42 C37 0.930 . S
N43 Cu32 1.985 . S
N43 C45 1.335 . S
N43 C46 1.390 1_655 S
N44 C45 1.345 . S
N44 C47 1.336 1_655 S
C45 N43 1.335 . S
C45 N44 1.345 . S
C45 H50 0.930 . S
C46 N43 1.390 1_455 S
C46 C47 1.346 . S
C46 H51 0.930 . S
C47 N44 1.336 1_455 S
C47 C46 1.346 . S
C47 H54 0.929 . S
C48 O38 1.282 1_455 S
C48 O49 1.216 . S
O49 C48 1.216 . S
H50 C45 0.930 . S
H51 C46 0.930 . S
O52 Cu32 1.959 . S
O52 C39 1.251 1_655 S
H53 C36 0.930 . S
H54 C47 0.929 . S
Cu55 N56 1.999 . S
Cu55 O61 1.974 . S
Cu55 N66 1.985 . S
Cu55 O75 1.959 . S
N56 Cu55 1.999 . S
N56 C58 1.263 . S
N56 C60 1.389 . S
N57 C58 1.358 . S
N57 C59 1.400 . S
C58 N56 1.263 . S
C58 N57 1.358 . S
C58 H64 0.930 1_545 S
C59 N57 1.400 . S
C59 C60 1.351 . S
C59 H76 0.930 . S
C60 N56 1.389 . S
C60 C59 1.351 . S
C60 H65 0.930 . S
O61 Cu55 1.974 . S
O61 C71 1.282 1_545 S
C62 O63 1.261 . S
C62 O75 1.251 1_565 S
O63 C62 1.261 . S
H64 C58 0.930 1_565 S
H65 C60 0.930 . S
N66 Cu55 1.985 . S
N66 C68 1.335 . S
N66 C69 1.390 1_545 S
N67 C68 1.345 . S
N67 C70 1.336 1_545 S
C68 N66 1.335 . S
C68 N67 1.345 . S
C68 H73 0.930 . S
C69 N66 1.390 1_565 S
C69 C70 1.346 . S
C69 H74 0.930 . S
C70 N67 1.336 1_565 S
C70 C69 1.346 . S
C70 H77 0.929 . S
C71 O61 1.282 1_565 S
C71 O72 1.216 . S
O72 C71 1.216 . S
H73 C68 0.930 . S
H74 C69 0.930 . S
O75 Cu55 1.959 . S
O75 C62 1.251 1_545 S
H76 C59 0.930 . S
H77 C70 0.929 . S
H78 C84 0.930 . S
H79 C87 0.928 1_655 S
H80 C88 0.927 1_655 S
H81 C89 0.929 . S
H82 C92 0.930 . S
H83 C93 0.930 . S
C84 H78 0.930 . S
C84 C85 1.355 . S
C84 C86 1.415 . S
C85 C84 1.355 . S
C85 C87 1.422 . S
C86 C84 1.415 . S
C86 C91 1.425 . S
C86 C93 1.409 . S
C87 H79 0.928 1_455 S
C87 C85 1.422 . S
C87 C88 1.362 . S
C88 H80 0.927 1_455 S
C88 C87 1.362 . S
C88 C91 1.411 . S
C89 H81 0.929 . S
C89 C90 1.355 . S
C89 C91 1.415 . S
C90 C89 1.355 . S
C90 C92 1.419 . S
C91 C86 1.425 . S
C91 C88 1.411 . S
C91 C89 1.415 . S
C92 H82 0.930 . S
C92 C90 1.419 . S
C92 C93 1.362 . S
C93 H83 0.930 . S
C93 C86 1.409 . S
C93 C92 1.362 . S
H94 C100 0.930 . S
H95 C103 0.930 . S
H96 C104 0.930 . S
H97 C105 0.930 . S
H98 C108 0.930 . S
H99 C109 0.930 . S
C100 H94 0.930 . S
C100 C101 1.355 1_565 S
C100 C102 1.415 1_565 S
C101 C100 1.355 1_545 S
C101 C103 1.419 . S
C102 C100 1.415 1_545 S
C102 C107 1.425 . S
C102 C109 1.409 1_545 S
C103 H95 0.930 . S
C103 C101 1.419 . S
C103 C104 1.362 . S
C104 H96 0.930 . S
C104 C103 1.362 . S
C104 C107 1.409 . S
C105 H97 0.930 . S
C105 C106 1.355 . S
C105 C107 1.415 . S
C106 C105 1.355 . S
C106 C108 1.419 1_545 S
C107 C102 1.425 . S
C107 C104 1.409 . S
C107 C105 1.415 . S
C108 H98 0.930 . S
C108 C106 1.419 1_565 S
C108 C109 1.362 . S
C109 H99 0.930 . S
C109 C102 1.409 1_565 S
C109 C108 1.362 . S
H110 C116 0.930 . S
H111 C119 0.930 . S
H112 C120 0.930 . S
H113 C121 0.930 . S
H114 C124 0.930 . S
H115 C125 0.930 . S
C116 H110 0.930 . S
C116 C117 1.355 . S
C116 C118 1.415 . S
C117 C116 1.355 . S
C117 C119 1.419 1_455 S
C118 C116 1.415 . S
C118 C123 1.425 1_455 S
C118 C125 1.409 . S
C119 H111 0.930 . S
C119 C117 1.419 1_655 S
C119 C120 1.362 . S
C120 H112 0.930 . S
C120 C119 1.362 . S
C120 C123 1.409 . S
C121 H113 0.930 . S
C121 C122 1.355 . S
C121 C123 1.415 . S
C122 C121 1.355 . S
C122 C124 1.419 1_655 S
C123 C118 1.425 1_655 S
C123 C120 1.409 . S
C123 C121 1.415 . S
C124 H114 0.930 . S
C124 C122 1.419 1_455 S
C124 C125 1.362 . S
C125 H115 0.930 . S
C125 C118 1.409 . S
C125 C124 1.362 . S
H126 C132 0.930 . S
H127 C135 0.930 . S
H128 C136 0.930 . S
H129 C137 0.930 . S
H130 C140 0.930 . S
H131 C141 0.930 . S
C132 H126 0.930 . S
C132 C133 1.355 . S
C132 C134 1.415 . S
C133 C132 1.355 . S
C133 C135 1.419 1_545 S
C134 C132 1.415 . S
C134 C139 1.425 1_545 S
C134 C141 1.409 . S
C135 H127 0.930 . S
C135 C133 1.419 1_565 S
C135 C136 1.362 . S
C136 H128 0.930 . S
C136 C135 1.362 . S
C136 C139 1.409 . S
C137 H129 0.930 . S
C137 C138 1.355 . S
C137 C139 1.415 . S
C138 C137 1.355 . S
C138 C140 1.419 1_565 S
C139 C134 1.425 1_565 S
C139 C136 1.409 . S
C139 C137 1.415 . S
C140 H130 0.930 . S
C140 C138 1.419 1_545 S
C140 C141 1.362 . S
C141 H131 0.930 . S
C141 C134 1.409 . S
C141 C140 1.362 . S
H142 C148 0.930 . S
H143 C151 0.930 . S
H144 C152 0.930 . S
H145 C153 0.930 . S
H146 C156 0.930 . S
H147 C157 0.930 . S
C148 H142 0.930 . S
C148 C149 1.355 1_655 S
C148 C150 1.415 . S
C149 C148 1.355 1_455 S
C149 C151 1.419 . S
C150 C148 1.415 . S
C150 C155 1.425 1_655 S
C150 C157 1.409 . S
C151 H143 0.930 . S
C151 C149 1.419 . S
C151 C152 1.362 . S
C152 H144 0.930 . S
C152 C151 1.362 . S
C152 C155 1.409 . S
C153 H145 0.930 . S
C153 C154 1.355 . S
C153 C155 1.415 . S
C154 C153 1.355 . S
C154 C156 1.419 1_455 S
C155 C150 1.425 1_455 S
C155 C152 1.409 . S
C155 C153 1.415 . S
C156 H146 0.930 . S
C156 C154 1.419 1_655 S
C156 C157 1.362 . S
C157 H147 0.930 . S
C157 C150 1.409 . S
C157 C156 1.362 . S
H158 C164 0.930 . S
H159 C167 0.930 . S
H160 C168 0.930 . S
H161 C169 0.930 . S
H162 C172 0.930 . S
H163 C173 0.930 . S
C164 H158 0.930 . S
C164 C165 1.355 1_545 S
C164 C166 1.415 . S
C165 C164 1.355 1_565 S
C165 C167 1.419 . S
C166 C164 1.415 . S
C166 C171 1.425 1_545 S
C166 C173 1.409 . S
C167 H159 0.930 . S
C167 C165 1.419 . S
C167 C168 1.362 . S
C168 H160 0.930 . S
C168 C167 1.362 . S
C168 C171 1.409 . S
C169 H161 0.930 . S
C169 C170 1.355 1_565 S
C169 C171 1.415 . S
C170 C169 1.355 1_545 S
C170 C172 1.419 . S
C171 C166 1.425 1_565 S
C171 C168 1.409 . S
C171 C169 1.415 . S
C172 H162 0.930 . S
C172 C170 1.419 . S
C172 C173 1.362 . S
C173 H163 0.930 . S
C173 C166 1.409 . S
C173 C172 1.362 . S
H174 C180 0.930 . S
H175 C183 0.930 . S
H176 C184 0.930 . S
H177 C185 0.930 1_455 S
H178 C188 0.930 . S
H179 C189 0.930 . S
C180 H174 0.930 . S
C180 C181 1.355 . S
C180 C182 1.415 . S
C181 C180 1.355 . S
C181 C183 1.419 1_655 S
C182 C180 1.415 . S
C182 C187 1.425 . S
C182 C189 1.409 . S
C183 H175 0.930 . S
C183 C181 1.419 1_455 S
C183 C184 1.362 . S
C184 H176 0.930 . S
C184 C183 1.362 . S
C184 C187 1.409 1_455 S
C185 H177 0.930 1_655 S
C185 C186 1.355 . S
C185 C187 1.415 . S
C186 C185 1.355 . S
C186 C188 1.419 . S
C187 C182 1.425 . S
C187 C184 1.409 1_655 S
C187 C185 1.415 . S
C188 H178 0.930 . S
C188 C186 1.419 . S
C188 C189 1.362 . S
C189 H179 0.930 . S
C189 C182 1.409 . S
C189 C188 1.362 . S
H190 C196 0.930 . S
H191 C199 0.930 . S
H192 C200 0.930 . S
H193 C201 0.930 . S
H194 C204 0.930 . S
H195 C205 0.930 . S
C196 H190 0.930 . S
C196 C197 1.355 1_545 S
C196 C198 1.415 . S
C197 C196 1.355 1_565 S
C197 C199 1.419 . S
C198 C196 1.415 . S
C198 C203 1.425 1_545 S
C198 C205 1.409 . S
C199 H191 0.930 . S
C199 C197 1.419 . S
C199 C200 1.362 . S
C200 H192 0.930 . S
C200 C199 1.362 . S
C200 C203 1.409 . S
C201 H193 0.930 . S
C201 C202 1.355 . S
C201 C203 1.415 . S
C202 C201 1.355 . S
C202 C204 1.419 1_565 S
C203 C198 1.425 1_565 S
C203 C200 1.409 . S
C203 C201 1.415 . S
C204 H194 0.930 . S
C204 C202 1.419 1_545 S
C204 C205 1.362 . S
C205 H195 0.930 . S
C205 C198 1.409 . S
C205 C204 1.362 . S
C85 C22 1.464 1_455 S
C90 C48 1.509 . S
C101 C8 1.366 . S
C106 N67 1.401 . S
C117 C31 1.365 . S
C122 N44 1.345 . S
C133 C17 1.449 1_545 S
C138 C71 1.530 . S
C149 C30 1.460 . S
C154 C39 1.560 . S
C165 C27 1.401 . S
C170 N57 1.422 . S
C186 N34 1.398 . S
C181 C23 1.360 . S
C197 C24 1.516 1_565 S
C202 C62 1.556 . S
