# Generated by pormake.
# Topology pyr, (3,6)-cn, num edge types: 1
# Building blocks:
#     Node 0, Type 0, BuildingBlock: OLANEW_clean_sbu_2, # of connection points: 3
#     Node 1, Type 0, BuildingBlock: OLANEW_clean_sbu_2, # of connection points: 3
#     Node 2, Type 0, BuildingBlock: OLANEW_clean_sbu_2, # of connection points: 3
#     Node 3, Type 0, BuildingBlock: OLANEW_clean_sbu_2, # of connection points: 3
#     Node 4, Type 0, BuildingBlock: OLANEW_clean_sbu_2, # of connection points: 3
#     Node 5, Type 0, BuildingBlock: OLANEW_clean_sbu_2, # of connection points: 3
#     Node 6, Type 0, BuildingBlock: OLANEW_clean_sbu_2, # of connection points: 3
#     Node 7, Type 0, BuildingBlock: OLANEW_clean_sbu_2, # of connection points: 3
#     Node 8, Type 1, BuildingBlock: MIFKUJ_clean_sbu_0, # of connection points: 6
#     Node 9, Type 1, BuildingBlock: MIFKUJ_clean_sbu_0, # of connection points: 6
#     Node 10, Type 1, BuildingBlock: MIFKUJ_clean_sbu_0, # of connection points: 6
#     Node 11, Type 1, BuildingBlock: MIFKUJ_clean_sbu_0, # of connection points: 6
#     Edge 12, Type (0, 1), None
#     Edge 13, Type (0, 1), None
#     Edge 14, Type (0, 1), None
#     Edge 15, Type (0, 1), None
#     Edge 16, Type (0, 1), None
#     Edge 17, Type (0, 1), None
#     Edge 18, Type (0, 1), None
#     Edge 19, Type (0, 1), None
#     Edge 20, Type (0, 1), None
#     Edge 21, Type (0, 1), None
#     Edge 22, Type (0, 1), None
#     Edge 23, Type (0, 1), None
#     Edge 24, Type (0, 1), None
#     Edge 25, Type (0, 1), None
#     Edge 26, Type (0, 1), None
#     Edge 27, Type (0, 1), None
#     Edge 28, Type (0, 1), None
#     Edge 29, Type (0, 1), None
#     Edge 30, Type (0, 1), None
#     Edge 31, Type (0, 1), None
#     Edge 32, Type (0, 1), None
#     Edge 33, Type (0, 1), None
#     Edge 34, Type (0, 1), None
#     Edge 35, Type (0, 1), None
# Relax obj value: 0.107
# Max RMSD: 0.162
# Mean RMSD: 0.120
data_MOF--net-pyr--node1-OLANEW_clean_sbu_2--node2-MIFKUJ_clean_sbu_0--edge1-none
_symmetry_space_group_name_H-M    P1
_symmetry_Int_Tables_number       1
_symmetry_cell_setting            triclinic
loop_
_symmetry_equiv_pos_as_xyz
'x, y, z'
_cell_length_a     21.206404
_cell_length_b     19.196512
_cell_length_c     18.712586
_cell_angle_alpha  88.620888
_cell_angle_beta   85.321504
_cell_angle_gamma 105.44071
loop_
_atom_site_label
_atom_site_type_symbol
_atom_site_fract_x
_atom_site_fract_y
_atom_site_fract_z
_atom_type_partial_charge
O0 O 0.31406 0.18937 0.20695 0.0
Cd1 Cd 0.21854 0.2309 0.25349 0.0
O2 O 0.26548 0.07789 0.2483 0.0
Cd3 Cd 0.17083 0.0955 0.28359 0.0
O4 O 0.10526 0.08633 0.3806 0.0
C5 C 0.13627 0.0803 0.43456 0.0
O6 O 0.19825 0.08017 0.42436 0.0
C7 C 0.31572 0.12436 0.21859 0.0
C8 C 0.18582 0.33537 0.16839 0.0
O9 O 0.23766 0.35011 0.20195 0.0
O10 O 0.14879 0.27045 0.17356 0.0
O11 O 0.43475 0.92599 0.84477 0.0
Cd12 Cd 0.3612 0.84531 0.77131 0.0
O13 O 0.35525 0.88498 0.9305 0.0
Cd14 Cd 0.28022 0.87679 0.85451 0.0
O15 O 0.21507 0.90921 0.78291 0.0
C16 C 0.1667 0.92829 0.81267 0.0
O17 O 0.15714 0.92501 0.88303 0.0
C18 C 0.41521 0.91619 0.91107 0.0
C19 C 0.42764 0.76236 0.69137 0.0
O20 O 0.41731 0.75174 0.75957 0.0
O21 O 0.40652 0.81126 0.66129 0.0
O22 O 0.8017 0.46507 0.78983 0.0
Cd23 Cd 0.68473 0.40841 0.78162 0.0
O24 O 0.80292 0.39389 0.88341 0.0
Cd25 Cd 0.70334 0.32774 0.87626 0.0
O26 O 0.6214 0.24662 0.93109 0.0
C27 C 0.64329 0.20484 0.96968 0.0
O28 O 0.70707 0.21396 0.96759 0.0
C29 C 0.83179 0.44656 0.84 0.0
C30 C 0.62652 0.47706 0.68375 0.0
O31 O 0.63841 0.5032 0.74508 0.0
O32 O 0.64303 0.41935 0.66804 0.0
O33 O 0.98356 0.8396 0.28391 0.0
Cd34 Cd 0.93017 0.7389 0.2091 0.0
O35 O 0.9557 0.7451 0.35734 0.0
Cd36 Cd 0.91639 0.68733 0.45832 0.0
O37 O 0.8164 0.63374 0.43949 0.0
C38 C 0.77017 0.66318 0.45333 0.0
O39 O 0.78094 0.72376 0.48718 0.0
C40 C 0.97307 0.81336 0.34802 0.0
C41 C 0.9856 0.63639 0.14419 0.0
O42 O 0.9785 0.69105 0.10823 0.0
O43 O 0.97086 0.63211 0.21229 0.0
O44 O 0.86829 0.84458 0.70967 0.0
Cd45 Cd 0.8253 0.79673 0.83086 0.0
O46 O 0.91644 0.94724 0.75629 0.0
Cd47 Cd 0.8444 0.92721 0.8496 0.0
O48 O 0.75437 0.93576 0.90978 0.0
C49 C 0.71821 0.9673 0.87791 0.0
O50 O 0.73572 0.99215 0.81118 0.0
C51 C 0.90924 0.90653 0.70334 0.0
C52 C 0.90369 0.71673 0.88619 0.0
O53 O 0.85508 0.68732 0.85084 0.0
O54 O 0.91584 0.78452 0.89661 0.0
O55 O 0.65752 0.11629 0.29017 0.0
Cd56 Cd 0.73912 0.16442 0.37487 0.0
O57 O 0.70194 0.22936 0.25894 0.0
Cd58 Cd 0.71531 0.33785 0.2151 0.0
O59 O 0.71258 0.40724 0.30441 0.0
C60 C 0.65735 0.39429 0.34108 0.0
O61 O 0.60668 0.34638 0.31959 0.0
C62 C 0.65807 0.17129 0.25094 0.0
C63 C 0.84119 0.10152 0.38886 0.0
O64 O 0.78895 0.08384 0.43232 0.0
O65 O 0.84452 0.14707 0.33657 0.0
O66 O 0.47064 0.82575 0.21757 0.0
Cd67 Cd 0.40941 0.72186 0.29944 0.0
O68 O 0.38279 0.86578 0.2115 0.0
Cd69 Cd 0.31833 0.7667 0.26017 0.0
O70 O 0.25231 0.66396 0.23988 0.0
C71 C 0.24637 0.64846 0.17477 0.0
O72 O 0.28027 0.69408 0.12318 0.0
C73 C 0.44364 0.87329 0.19562 0.0
C74 C 0.47589 0.66062 0.39669 0.0
O75 O 0.46253 0.63191 0.33671 0.0
O76 O 0.46035 0.71946 0.40974 0.0
O77 O 0.17221 0.45841 0.84004 0.0
Cd78 Cd 0.24736 0.38711 0.79689 0.0
O79 O 0.14858 0.40223 0.94695 0.0
Cd80 Cd 0.18873 0.31617 0.90743 0.0
O81 O 0.18986 0.23429 0.82916 0.0
C82 C 0.13693 0.20406 0.80198 0.0
O83 O 0.08228 0.22016 0.8238 0.0
C84 C 0.14416 0.45228 0.90351 0.0
C85 C 0.3671 0.47116 0.73086 0.0
O86 O 0.35855 0.45779 0.79892 0.0
O87 O 0.31912 0.44514 0.69336 0.0
Zn88 Zn 0.09148 0.03908 0.65543 0.0
Zn89 Zn 0.96265 0.98556 0.48539 0.0
C90 C 0.13694 0.15091 0.74724 0.0
O91 O 0.19212 0.1363 0.7248 0.0
C92 C 0.96979 0.85918 0.40958 0.0
O93 O 0.94467 0.82869 0.47273 0.0
O94 O 0.14148 0.97746 0.70372 0.0
O95 O 0.00286 0.97623 0.63299 0.0
O96 O 0.91813 0.9225 0.57589 0.0
C97 C 0.12567 0.96071 0.77017 0.0
O98 O 0.07625 0.98013 0.80278 0.0
O99 O 0.08375 0.11702 0.72265 0.0
C100 C 0.89618 0.07098 0.40014 0.0
O101 O 0.9443 0.07717 0.34957 0.0
O102 O 0.89684 0.0383 0.45972 0.0
O103 O 0.04405 0.04873 0.52198 0.0
O104 O 0.14066 0.08418 0.56001 0.0
O105 O 0.98322 0.92755 0.40107 0.0
C106 C 0.9455 0.93414 0.63438 0.0
C107 C 0.10519 0.07535 0.50758 0.0
Zn108 Zn 0.57568 -0.00131 0.03479 0.0
Zn109 Zn 0.49495 0.09203 0.12307 0.0
C110 C 0.46339 0.92858 0.96398 0.0
O111 O 0.46982 0.87319 0.00233 0.0
C112 C 0.60787 0.16841 0.20055 0.0
O113 O 0.60874 0.22597 0.16071 0.0
O114 O 0.64373 0.95911 0.98185 0.0
O115 O 0.62375 0.10104 0.04545 0.0
O116 O 0.53844 0.1408 0.02689 0.0
C117 C 0.66108 0.98249 0.9171 0.0
O118 O 0.63131 0.02617 0.88743 0.0
O119 O 0.50309 0.99051 0.96853 0.0
C120 C 0.37541 0.10124 0.19954 0.0
O121 O 0.37961 0.03907 0.22652 0.0
O122 O 0.42166 0.13825 0.15536 0.0
O123 O 0.45283 0.98316 0.13022 0.0
O124 O 0.54051 0.94156 0.12734 0.0
O125 O 0.56407 0.10947 0.19465 0.0
C126 C 0.59949 0.14639 0.01562 0.0
C127 C 0.4815 0.9366 0.15055 0.0
Zn128 Zn 0.57759 0.52495 0.4859 0.0
Zn129 Zn 0.52178 0.61458 0.60478 0.0
C130 C 0.70408 0.62502 0.43758 0.0
O131 O 0.69534 0.59449 0.37587 0.0
C132 C 0.42948 0.5184 0.69798 0.0
O133 O 0.47439 0.55018 0.73977 0.0
O134 O 0.59511 0.45385 0.41471 0.0
O135 O 0.56481 0.47567 0.5837 0.0
O136 O 0.59669 0.57881 0.63759 0.0
C137 C 0.64862 0.43648 0.40314 0.0
O138 O 0.69769 0.46235 0.44201 0.0
O139 O 0.65927 0.60738 0.48894 0.0
C140 C 0.45675 0.7151 0.64765 0.0
O141 O 0.43088 0.69257 0.58821 0.0
O142 O 0.50282 0.69088 0.66861 0.0
O143 O 0.52789 0.66007 0.50408 0.0
O144 O 0.50604 0.55999 0.44549 0.0
O145 O 0.439 0.53385 0.63062 0.0
C146 C 0.59452 0.51216 0.63273 0.0
C147 C 0.5058 0.62559 0.45049 0.0
Zn148 Zn 0.0013 0.56424 0.93021 0.0
Zn149 Zn 0.10198 0.49502 0.08701 0.0
C150 C 0.89756 0.49015 0.85218 0.0
O151 O 0.93224 0.53673 0.80186 0.0
C152 C 0.19644 0.58425 0.15789 0.0
O153 O 0.15778 0.54362 0.21 0.0
O154 O 0.98755 0.6561 0.88791 0.0
O155 O 0.00755 0.57487 0.04022 0.0
O156 O 0.03829 0.54075 0.14275 0.0
C157 C 0.93843 0.67121 0.9211 0.0
O158 O 0.90826 0.63091 0.97786 0.0
O159 O 0.91787 0.48956 0.91428 0.0
C160 C 0.1703 0.39268 0.12574 0.0
O161 O 0.21901 0.44491 0.09539 0.0
O162 O 0.11171 0.39836 0.12633 0.0
O163 O 0.08097 0.50237 0.98809 0.0
O164 O 0.07311 0.52565 0.87716 0.0
O165 O 0.18549 0.57118 0.09335 0.0
C166 C 0.01143 0.58129 0.10765 0.0
C167 C 0.09837 0.4951 0.92352 0.0
loop_
_geom_bond_atom_site_label_1
_geom_bond_atom_site_label_2
_geom_bond_distance
_geom_bond_site_symmetry_2
_ccdc_geom_bond_type
O0 Cd1 2.300 . S
O0 C7 1.275 . S
Cd1 O0 2.300 . S
Cd1 O9 2.381 . S
Cd1 O10 2.378 . S
O2 Cd3 2.385 . S
O2 C7 1.255 . S
Cd3 O2 2.385 . S
Cd3 O4 2.317 . S
O4 Cd3 2.317 . S
O4 C5 1.232 . S
C5 O4 1.232 . S
C5 O6 1.218 . S
O6 C5 1.218 . S
C7 O0 1.275 . S
C7 O2 1.255 . S
C8 O9 1.258 . S
C8 O10 1.256 . S
O9 Cd1 2.381 . S
O9 C8 1.258 . S
O10 Cd1 2.378 . S
O10 C8 1.256 . S
O11 Cd12 2.300 . S
O11 C18 1.275 . S
Cd12 O11 2.300 . S
Cd12 O20 2.381 . S
Cd12 O21 2.378 . S
O13 Cd14 2.385 . S
O13 C18 1.255 . S
Cd14 O13 2.385 . S
Cd14 O15 2.317 . S
O15 Cd14 2.317 . S
O15 C16 1.232 . S
C16 O15 1.232 . S
C16 O17 1.218 . S
O17 C16 1.218 . S
C18 O11 1.275 . S
C18 O13 1.255 . S
C19 O20 1.258 . S
C19 O21 1.256 . S
O20 Cd12 2.381 . S
O20 C19 1.258 . S
O21 Cd12 2.378 . S
O21 C19 1.256 . S
O22 Cd23 2.300 . S
O22 C29 1.275 . S
Cd23 O22 2.300 . S
Cd23 O31 2.381 . S
Cd23 O32 2.378 . S
O24 Cd25 2.385 . S
O24 C29 1.255 . S
Cd25 O24 2.385 . S
Cd25 O26 2.317 . S
O26 Cd25 2.317 . S
O26 C27 1.232 . S
C27 O26 1.232 . S
C27 O28 1.218 . S
O28 C27 1.218 . S
C29 O22 1.275 . S
C29 O24 1.255 . S
C30 O31 1.258 . S
C30 O32 1.256 . S
O31 Cd23 2.381 . S
O31 C30 1.258 . S
O32 Cd23 2.378 . S
O32 C30 1.256 . S
O33 Cd34 2.300 . S
O33 C40 1.275 . S
Cd34 O33 2.300 . S
Cd34 O42 2.381 1_655 S
Cd34 O43 2.378 . S
O35 Cd36 2.385 . S
O35 C40 1.255 . S
Cd36 O35 2.385 . S
Cd36 O37 2.317 . S
O37 Cd36 2.317 . S
O37 C38 1.232 . S
C38 O37 1.232 . S
C38 O39 1.218 . S
O39 C38 1.218 . S
C40 O33 1.275 . S
C40 O35 1.255 . S
C41 O42 1.258 . S
C41 O43 1.256 1_455 S
O42 Cd34 2.381 1_455 S
O42 C41 1.258 . S
O43 Cd34 2.378 . S
O43 C41 1.256 1_655 S
O44 Cd45 2.300 . S
O44 C51 1.275 . S
Cd45 O44 2.300 . S
Cd45 O53 2.381 . S
Cd45 O54 2.378 . S
O46 Cd47 2.385 1_565 S
O46 C51 1.255 . S
Cd47 O46 2.385 1_545 S
Cd47 O48 2.317 1_545 S
O48 Cd47 2.317 1_565 S
O48 C49 1.232 . S
C49 O48 1.232 . S
C49 O50 1.218 1_565 S
O50 C49 1.218 1_545 S
C51 O44 1.275 . S
C51 O46 1.255 . S
C52 O53 1.258 . S
C52 O54 1.256 . S
O53 Cd45 2.381 . S
O53 C52 1.258 . S
O54 Cd45 2.378 . S
O54 C52 1.256 . S
O55 Cd56 2.300 . S
O55 C62 1.275 . S
Cd56 O55 2.300 . S
Cd56 O64 2.381 . S
Cd56 O65 2.378 . S
O57 Cd58 2.385 . S
O57 C62 1.255 . S
Cd58 O57 2.385 . S
Cd58 O59 2.317 . S
O59 Cd58 2.317 . S
O59 C60 1.232 . S
C60 O59 1.232 . S
C60 O61 1.218 . S
O61 C60 1.218 . S
C62 O55 1.275 . S
C62 O57 1.255 . S
C63 O64 1.258 . S
C63 O65 1.256 . S
O64 Cd56 2.381 . S
O64 C63 1.258 . S
O65 Cd56 2.378 . S
O65 C63 1.256 . S
O66 Cd67 2.300 . S
O66 C73 1.275 . S
Cd67 O66 2.300 . S
Cd67 O75 2.381 . S
Cd67 O76 2.378 . S
O68 Cd69 2.385 . S
O68 C73 1.255 . S
Cd69 O68 2.385 . S
Cd69 O70 2.317 . S
O70 Cd69 2.317 . S
O70 C71 1.232 . S
C71 O70 1.232 . S
C71 O72 1.218 . S
O72 C71 1.218 . S
C73 O66 1.275 . S
C73 O68 1.255 . S
C74 O75 1.258 . S
C74 O76 1.256 . S
O75 Cd67 2.381 . S
O75 C74 1.258 . S
O76 Cd67 2.378 . S
O76 C74 1.256 . S
O77 Cd78 2.300 . S
O77 C84 1.275 . S
Cd78 O77 2.300 . S
Cd78 O86 2.381 . S
Cd78 O87 2.378 . S
O79 Cd80 2.385 . S
O79 C84 1.255 . S
Cd80 O79 2.385 . S
Cd80 O81 2.317 . S
O81 Cd80 2.317 . S
O81 C82 1.232 . S
C82 O81 1.232 . S
C82 O83 1.218 . S
O83 C82 1.218 . S
C84 O77 1.275 . S
C84 O79 1.255 . S
C85 O86 1.258 . S
C85 O87 1.256 . S
O86 Cd78 2.381 . S
O86 C85 1.258 . S
O87 Cd78 2.378 . S
O87 C85 1.256 . S
Zn88 O94 1.969 1_545 S
Zn88 O95 1.965 1_545 S
Zn88 O99 2.024 . S
Zn88 O104 1.969 . S
Zn89 O96 1.969 . S
Zn89 O102 1.969 1_565 S
Zn89 O103 1.965 1_665 S
Zn89 O105 2.024 . S
C90 O91 1.229 . S
C90 O99 1.058 . S
O91 C90 1.229 . S
C92 O93 1.229 . S
C92 O105 1.058 . S
O93 C92 1.229 . S
O94 Zn88 1.969 1_565 S
O94 C97 1.267 . S
O95 Zn88 1.965 1_565 S
O95 C106 1.260 1_455 S
O96 Zn89 1.969 . S
O96 C106 1.258 . S
C97 O94 1.267 . S
C97 O98 1.228 . S
O98 C97 1.228 . S
O99 Zn88 2.024 . S
O99 C90 1.058 . S
C100 O101 1.228 . S
C100 O102 1.267 . S
O101 C100 1.228 . S
O102 Zn89 1.969 1_545 S
O102 C100 1.267 . S
O103 Zn89 1.965 1_445 S
O103 C107 1.260 . S
O104 Zn88 1.969 . S
O104 C107 1.258 . S
O105 Zn89 2.024 . S
O105 C92 1.058 . S
C106 O95 1.260 1_655 S
C106 O96 1.258 . S
C107 O103 1.260 . S
C107 O104 1.258 . S
Zn108 O114 1.969 . S
Zn108 O115 1.965 1_566 S
Zn108 O119 2.024 1_565 S
Zn108 O124 1.969 1_556 S
Zn109 O116 1.969 . S
Zn109 O122 1.969 . S
Zn109 O123 1.965 . S
Zn109 O125 2.024 . S
C110 O111 1.229 . S
C110 O119 1.058 1_565 S
O111 C110 1.229 . S
C112 O113 1.229 . S
C112 O125 1.058 . S
O113 C112 1.229 . S
O114 Zn108 1.969 . S
O114 C117 1.267 . S
O115 Zn108 1.965 1_544 S
O115 C126 1.260 . S
O116 Zn109 1.969 . S
O116 C126 1.258 . S
C117 O114 1.267 . S
C117 O118 1.228 1_565 S
O118 C117 1.228 1_545 S
O119 Zn108 2.024 1_545 S
O119 C110 1.058 1_545 S
C120 O121 1.228 . S
C120 O122 1.267 . S
O121 C120 1.228 . S
O122 Zn109 1.969 . S
O122 C120 1.267 . S
O123 Zn109 1.965 . S
O123 C127 1.260 1_545 S
O124 Zn108 1.969 1_554 S
O124 C127 1.258 . S
O125 Zn109 2.024 . S
O125 C112 1.058 . S
C126 O115 1.260 . S
C126 O116 1.258 . S
C127 O123 1.260 1_565 S
C127 O124 1.258 . S
Zn128 O134 1.969 . S
Zn128 O135 1.965 . S
Zn128 O139 2.024 . S
Zn128 O144 1.969 . S
Zn129 O136 1.969 . S
Zn129 O142 1.969 . S
Zn129 O143 1.965 . S
Zn129 O145 2.024 . S
C130 O131 1.229 . S
C130 O139 1.058 . S
O131 C130 1.229 . S
C132 O133 1.229 . S
C132 O145 1.058 . S
O133 C132 1.229 . S
O134 Zn128 1.969 . S
O134 C137 1.267 . S
O135 Zn128 1.965 . S
O135 C146 1.260 . S
O136 Zn129 1.969 . S
O136 C146 1.258 . S
C137 O134 1.267 . S
C137 O138 1.228 . S
O138 C137 1.228 . S
O139 Zn128 2.024 . S
O139 C130 1.058 . S
C140 O141 1.228 . S
C140 O142 1.267 . S
O141 C140 1.228 . S
O142 Zn129 1.969 . S
O142 C140 1.267 . S
O143 Zn129 1.965 . S
O143 C147 1.260 . S
O144 Zn128 1.969 . S
O144 C147 1.258 . S
O145 Zn129 2.024 . S
O145 C132 1.058 . S
C146 O135 1.260 . S
C146 O136 1.258 . S
C147 O143 1.260 . S
C147 O144 1.258 . S
Zn148 O154 1.969 1_655 S
Zn148 O155 1.965 1_656 S
Zn148 O159 2.024 . S
Zn148 O164 1.969 1_655 S
Zn149 O156 1.969 . S
Zn149 O162 1.969 . S
Zn149 O163 1.965 1_554 S
Zn149 O165 2.024 . S
C150 O151 1.229 . S
C150 O159 1.058 . S
O151 C150 1.229 . S
C152 O153 1.229 . S
C152 O165 1.058 . S
O153 C152 1.229 . S
O154 Zn148 1.969 1_455 S
O154 C157 1.267 1_455 S
O155 Zn148 1.965 1_454 S
O155 C166 1.260 . S
O156 Zn149 1.969 . S
O156 C166 1.258 . S
C157 O154 1.267 1_655 S
C157 O158 1.228 . S
O158 C157 1.228 . S
O159 Zn148 2.024 . S
O159 C150 1.058 . S
C160 O161 1.228 . S
C160 O162 1.267 . S
O161 C160 1.228 . S
O162 Zn149 1.969 . S
O162 C160 1.267 . S
O163 Zn149 1.965 1_556 S
O163 C167 1.260 . S
O164 Zn148 1.969 1_455 S
O164 C167 1.258 . S
O165 Zn149 2.024 . S
O165 C152 1.058 . S
C166 O155 1.260 . S
C166 O156 1.258 . S
C167 O163 1.260 . S
C167 O164 1.258 . S
C5 C107 1.937 . S
C18 C110 1.409 . S
C146 C30 2.052 . S
C41 C166 1.746 . S
C120 C7 2.036 . S
C97 C16 1.478 . S
C150 C29 1.736 . S
C130 C38 0.548 . S
C8 C160 1.309 . S
C126 C27 2.125 1_554 S
C40 C92 2.396 . S
C19 C140 0.881 . S
C106 C51 1.466 . S
C62 C112 1.819 . S
C74 C147 2.089 . S
C84 C167 1.953 . S
C49 C117 1.809 . S
C100 C63 1.487 . S
C152 C71 1.916 . S
C132 C85 1.469 . S
C52 C157 1.330 . S
C127 C73 2.360 . S
C90 C82 2.101 . S
C60 C137 1.446 . S
