# Generated by pormake.
# Topology rtl, (3,6)-cn, num edge types: 1
# Building blocks:
#     Node 0, Type 0, BuildingBlock: OLANEW_clean_sbu_2, # of connection points: 3
#     Node 1, Type 0, BuildingBlock: OLANEW_clean_sbu_2, # of connection points: 3
#     Node 2, Type 0, BuildingBlock: OLANEW_clean_sbu_2, # of connection points: 3
#     Node 3, Type 0, BuildingBlock: OLANEW_clean_sbu_2, # of connection points: 3
#     Node 4, Type 1, BuildingBlock: FUNLAD_clean_sbu_0, # of connection points: 6
#     Node 5, Type 1, BuildingBlock: FUNLAD_clean_sbu_0, # of connection points: 6
#     Edge 6, Type (0, 1), BuildingBlock: AJUNOK_clean_linker_0, # of connection points: 2
#     Edge 7, Type (0, 1), BuildingBlock: AJUNOK_clean_linker_0, # of connection points: 2
#     Edge 8, Type (0, 1), BuildingBlock: AJUNOK_clean_linker_0, # of connection points: 2
#     Edge 9, Type (0, 1), BuildingBlock: AJUNOK_clean_linker_0, # of connection points: 2
#     Edge 10, Type (0, 1), BuildingBlock: AJUNOK_clean_linker_0, # of connection points: 2
#     Edge 11, Type (0, 1), BuildingBlock: AJUNOK_clean_linker_0, # of connection points: 2
#     Edge 12, Type (0, 1), BuildingBlock: AJUNOK_clean_linker_0, # of connection points: 2
#     Edge 13, Type (0, 1), BuildingBlock: AJUNOK_clean_linker_0, # of connection points: 2
#     Edge 14, Type (0, 1), BuildingBlock: AJUNOK_clean_linker_0, # of connection points: 2
#     Edge 15, Type (0, 1), BuildingBlock: AJUNOK_clean_linker_0, # of connection points: 2
#     Edge 16, Type (0, 1), BuildingBlock: AJUNOK_clean_linker_0, # of connection points: 2
#     Edge 17, Type (0, 1), BuildingBlock: AJUNOK_clean_linker_0, # of connection points: 2
# Relax obj value: 0.016
# Max RMSD: 0.081
# Mean RMSD: 0.054
data_MOF--net-rtl--node1-OLANEW_clean_sbu_2--node2-FUNLAD_clean_sbu_0--edge1-AJUNOK_clean_linker_0
_symmetry_space_group_name_H-M    P1
_symmetry_Int_Tables_number       1
_symmetry_cell_setting            triclinic
loop_
_symmetry_equiv_pos_as_xyz
'x, y, z'
_cell_length_a     33.667628
_cell_length_b     31.492653
_cell_length_c     17.538958
_cell_angle_alpha  86.548562
_cell_angle_beta   93.996938
_cell_angle_gamma 90.427148
loop_
_atom_site_label
_atom_site_type_symbol
_atom_site_fract_x
_atom_site_fract_y
_atom_site_fract_z
_atom_type_partial_charge
O0 O 0.14257 0.82545 0.9126 0.0
Cd1 Cd 0.17232 0.78951 0.03047 0.0
O2 O 0.15564 0.88707 0.96169 0.0
Cd3 Cd 0.16316 0.8615 0.08 0.0
O4 O 0.13523 0.87401 0.18501 0.0
C5 C 0.12246 0.91191 0.18425 0.0
O6 O 0.12858 0.9379 0.12469 0.0
C7 C 0.14389 0.86585 0.90497 0.0
C8 C 0.23818 0.73894 0.00985 0.0
O9 O 0.20327 0.72277 0.01357 0.0
O10 O 0.24196 0.77926 0.01423 0.0
O11 O 0.64856 0.68724 0.64277 0.0
Cd12 Cd 0.68155 0.71858 0.53134 0.0
O13 O 0.66628 0.62331 0.61393 0.0
Cd14 Cd 0.68457 0.64121 0.49971 0.0
O15 O 0.66376 0.62609 0.38387 0.0
C16 C 0.62678 0.63169 0.36688 0.0
O17 O 0.60534 0.64853 0.41704 0.0
C18 C 0.65015 0.64727 0.65868 0.0
C19 C 0.74517 0.77521 0.55808 0.0
O20 O 0.70963 0.7888 0.54143 0.0
O21 O 0.7505 0.73486 0.56438 0.0
O22 O 0.84073 0.15213 0.18393 0.0
Cd23 Cd 0.80538 0.1729 0.06033 0.0
O24 O 0.89797 0.17854 0.15077 0.0
Cd25 Cd 0.87683 0.18895 0.03116 0.0
O26 O 0.88867 0.16 0.92539 0.0
C27 C 0.92529 0.15241 0.9193 0.0
O28 O 0.95141 0.16481 0.9727 0.0
C29 C 0.8773 0.15996 0.20084 0.0
C30 C 0.75223 0.24061 0.06209 0.0
O31 O 0.7419 0.20238 0.08101 0.0
O32 O 0.78801 0.24704 0.04338 0.0
O33 O 0.38778 0.3379 0.62677 0.0
Cd34 Cd 0.3588 0.29789 0.52026 0.0
O35 O 0.35975 0.39787 0.58161 0.0
Cd36 Cd 0.33766 0.37414 0.47249 0.0
O37 O 0.35209 0.3891 0.3547 0.0
C38 C 0.38734 0.38037 0.33946 0.0
O39 O 0.41036 0.35935 0.39218 0.0
C40 C 0.38138 0.37725 0.63319 0.0
C41 C 0.29041 0.2497 0.54829 0.0
O42 O 0.32535 0.2348 0.56643 0.0
O43 O 0.28774 0.28784 0.51847 0.0
C44 C 0.04417 0.97995 0.43522 0.0
N45 N 0.08488 0.08531 0.55291 0.0
C46 C 0.12186 0.06977 0.54478 0.0
C47 C 0.155 0.09665 0.54701 0.0
C48 C 0.15032 0.13999 0.55871 0.0
C49 C 0.11175 0.1554 0.56576 0.0
C50 C 0.07928 0.12736 0.56275 0.0
Zn51 Zn 0.03811 0.043 0.55403 0.0
C52 C 0.96778 0.07114 0.4543 0.0
N53 N 0.94316 0.95111 0.56009 0.0
C54 C 0.94957 0.90923 0.55018 0.0
C55 C 0.90619 0.96535 0.57232 0.0
C56 C 0.87407 0.93708 0.57601 0.0
C57 C 0.87976 0.89362 0.56624 0.0
C58 C 0.91814 0.87994 0.55237 0.0
Zn59 Zn 0.9897 0.99399 0.55738 0.0
O60 O 0.05953 0.01352 0.46123 0.0
C61 C 0.05979 0.96578 0.65749 0.0
O62 O 0.01376 0.96351 0.46485 0.0
H63 H 0.90151 0.99876 0.57942 0.0
H64 H 0.12578 0.0363 0.53701 0.0
H65 H 0.9791 0.89849 0.54024 0.0
O66 O 0.07259 1.00148 0.63157 0.0
O67 O 0.02474 0.954 0.63631 0.0
H68 H 0.04966 0.1391 0.56913 0.0
O69 O 0.9671 0.0258 0.64953 0.0
O70 O 0.01597 0.07222 0.64641 0.0
O71 O 0.9555 0.03481 0.47842 0.0
O72 O 1.00252 0.08352 0.47656 0.0
C73 C 0.98445 0.05853 0.67531 0.0
H74 H 0.18401 0.08361 0.53913 0.0
H75 H 0.10683 0.18863 0.57466 0.0
H76 H 0.84509 0.94914 0.58688 0.0
H77 H 0.92381 0.84705 0.54213 0.0
C78 C 0.47202 0.4693 0.86702 0.0
N79 N 0.57709 0.43997 0.00427 0.0
C80 C 0.56606 0.39843 0.00109 0.0
C81 C 0.59453 0.36626 0.01195 0.0
C82 C 0.63479 0.37675 0.02744 0.0
C83 C 0.64548 0.41991 0.02902 0.0
C84 C 0.61601 0.45117 0.01719 0.0
Zn85 Zn 0.53354 0.48558 -0.00771 0.0
C86 C 0.55554 0.55838 0.88399 0.0
N87 N 0.44238 0.58068 0.96908 0.0
C88 C 0.40499 0.5656 0.95216 0.0
C89 C 0.4484 0.62188 -0.01339 0.0
C90 C 0.4159 0.64902 -0.00926 0.0
C91 C 0.37696 0.63363 -0.02386 0.0
C92 C 0.37195 0.59176 0.95395 0.0
Zn93 Zn 0.48785 0.53687 -0.02172 0.0
O94 O 0.50315 0.45285 0.90169 0.0
C95 C 0.46709 0.46408 0.08803 0.0
O96 O 0.46033 0.50506 0.88628 0.0
H97 H 0.47826 0.63335 0.00014 0.0
H98 H 0.53502 0.39013 -0.00938 0.0
H99 H 0.4004 0.53268 0.93972 0.0
O100 O 0.50073 0.45039 0.07225 0.0
O101 O 0.45448 0.49921 0.05626 0.0
H102 H 0.6242 0.48438 0.01923 0.0
O103 O 0.51606 0.56765 0.07069 0.0
O104 O 0.56261 0.51892 0.08285 0.0
O105 O 0.52262 0.57391 0.90087 0.0
O106 O 0.56599 0.52179 0.91279 0.0
C107 C 0.5481 0.55303 0.1045 0.0
H108 H 0.58508 0.33348 0.00793 0.0
H109 H 0.6762 0.42938 0.04055 0.0
H110 H 0.42114 0.68117 0.00785 0.0
H111 H 0.34263 0.57889 0.93972 0.0
C112 C 0.21807 0.23463 0.51668 0.0
C113 C 0.2543 0.22288 0.55726 0.0
C114 C 0.18437 0.20818 0.51883 0.0
C115 C 0.18548 0.16898 0.56187 0.0
H116 H 0.21597 0.26394 0.48102 0.0
H117 H 0.1576 0.21795 0.48462 0.0
S118 S 0.27129 0.12592 0.68639 0.0
N119 N 0.28811 0.17083 0.6469 0.0
N120 N 0.22462 0.12167 0.652 0.0
C121 C 0.22094 0.15771 0.6054 0.0
C122 C 0.25534 0.18449 0.60287 0.0
C123 C 0.30662 0.72848 0.9663 0.0
C124 C 0.27325 0.71178 0.00205 0.0
C125 C 0.34008 0.70317 0.95821 0.0
C126 C 0.34159 0.66035 -0.01361 0.0
H127 H 0.30666 0.76119 0.94331 0.0
H128 H 0.36469 0.71709 0.92873 0.0
S129 S 0.26384 0.60305 0.09296 0.0
N130 N 0.24478 0.65064 0.07009 0.0
N131 N 0.30804 0.60364 0.05771 0.0
C132 C 0.30885 0.64374 0.02444 0.0
C133 C 0.27461 0.66928 0.03153 0.0
C134 C 0.776 0.84651 0.52947 0.0
C135 C 0.77928 0.80533 0.56517 0.0
C136 C 0.80845 0.87475 0.53056 0.0
C137 C 0.8455 0.86322 0.56812 0.0
H138 H 0.74842 0.85672 0.49853 0.0
H139 H 0.80464 0.90558 0.50018 0.0
S140 S 0.86837 0.76074 0.67787 0.0
N141 N 0.82185 0.75531 0.64323 0.0
N142 N 0.8824 0.80881 0.64746 0.0
C143 C 0.84878 0.8226 0.60629 0.0
C144 C 0.81583 0.79362 0.60436 0.0
C145 C 0.72953 0.31336 0.0126 0.0
C146 C 0.72315 0.276 0.05845 0.0
C147 C 0.70117 0.34604 0.00382 0.0
C148 C 0.66543 0.34277 0.04093 0.0
H149 H 0.75615 0.31694 -0.01854 0.0
H150 H 0.70684 0.37359 0.96607 0.0
S151 S 0.63669 0.25402 0.17522 0.0
N152 N 0.67977 0.23917 0.1461 0.0
N153 N 0.62703 0.30096 0.13108 0.0
C154 C 0.65944 0.30636 0.08941 0.0
C155 C 0.68814 0.27294 0.09781 0.0
C156 C 0.10042 0.97156 0.25776 0.0
C157 C 0.10174 0.92753 0.24883 0.0
C158 C 0.08135 0.98795 0.3178 0.0
C159 C 0.06208 0.9611 0.37062 0.0
H160 H 0.11477 0.99371 0.21865 0.0
H161 H 0.08164 0.0221 0.32271 0.0
S162 S 0.05594 0.84347 0.3722 0.0
N163 N 0.08177 0.85719 0.2978 0.0
N164 N 0.04506 0.88833 0.41017 0.0
C165 C 0.06247 0.91704 0.36193 0.0
C166 C 0.0826 0.90016 0.3013 0.0
C167 C 0.59468 0.64537 0.74738 0.0
C168 C 0.62958 0.62727 0.72389 0.0
C169 C 0.57114 0.62324 0.7999 0.0
C170 C 0.5818 0.58232 0.83138 0.0
H171 H 0.58449 0.67602 0.72249 0.0
H172 H 0.54398 0.63801 0.81463 0.0
S173 S 0.67322 0.52323 0.795 0.0
N174 N 0.67542 0.5677 0.74069 0.0
N175 N 0.63182 0.52631 0.8394 0.0
C176 C 0.61779 0.56489 0.81102 0.0
C177 C 0.6415 0.5873 0.75735 0.0
C178 C 0.93808 0.15164 0.29111 0.0
C179 C 0.89752 0.1424 0.27396 0.0
C180 C 0.96013 0.12981 0.35173 0.0
C181 C 0.94263 0.0976 0.3974 0.0
H182 H 0.95349 0.17478 0.25557 0.0
H183 H 0.99157 0.13699 0.36055 0.0
S184 S 0.83619 0.06524 0.38405 0.0
N185 N 0.83977 0.10185 0.31342 0.0
N186 N 0.88129 0.06077 0.42698 0.0
C187 C 0.90156 0.08987 0.38416 0.0
C188 C 0.87898 0.11233 0.3227 0.0
C189 C 0.43499 0.38145 0.73951 0.0
C190 C 0.40218 0.4002 0.69618 0.0
C191 C 0.45763 0.40407 0.79393 0.0
C192 C 0.44828 0.44633 0.80763 0.0
H193 H 0.44391 0.3493 0.73023 0.0
H194 H 0.48266 0.38822 0.82545 0.0
S195 S 0.36403 0.50951 0.71216 0.0
N196 N 0.36063 0.46321 0.67289 0.0
N197 N 0.40299 0.50562 0.77457 0.0
C198 C 0.41505 0.4652 0.76569 0.0
C199 C 0.39208 0.4422 0.71027 0.0
C200 C 0.62673 0.58416 0.25737 0.0
C201 C 0.60725 0.6148 0.29643 0.0
C202 C 0.60748 0.56461 0.19515 0.0
C203 C 0.56815 0.57525 0.16886 0.0
H204 H 0.65673 0.57425 0.27622 0.0
H205 H 0.62357 0.54073 0.16781 0.0
S206 S 0.50474 0.6555 0.24832 0.0
N207 N 0.54691 0.6562 0.30221 0.0
N208 N 0.51089 0.61979 0.18511 0.0
C209 C 0.54873 0.6068 0.20595 0.0
C210 C 0.56822 0.62645 0.26972 0.0
C211 C 0.97916 0.13049 0.83961 0.0
C212 C 0.93878 0.12869 0.85546 0.0
C213 C 0.9935 0.10758 0.78146 0.0
C214 C 0.96819 0.08136 0.73747 0.0
H215 H 1.0 0.14995 0.87215 0.0
H216 H 0.02483 0.11024 0.77139 0.0
S217 S 0.85985 0.06542 0.75562 0.0
N218 N 0.87348 0.09871 0.82195 0.0
N219 N 0.90064 0.05513 0.71307 0.0
C220 C 0.92773 0.07906 0.75269 0.0
C221 C 0.91295 0.10291 0.81143 0.0
C222 C 0.44291 0.38657 0.25233 0.0
C223 C 0.40441 0.39863 0.26881 0.0
C224 C 0.46226 0.40692 0.19212 0.0
C225 C 0.44407 0.44044 0.14605 0.0
H226 H 0.45882 0.3619 0.28748 0.0
H227 H 0.4923 0.39709 0.18339 0.0
S228 S 0.34192 0.48163 0.16016 0.0
N229 N 0.34753 0.44427 0.2302 0.0
N230 N 0.38403 0.48265 0.11721 0.0
C231 C 0.40486 0.4516 0.15952 0.0
C232 C 0.38499 0.43064 0.22072 0.0
C233 C 0.09403 0.87225 0.79259 0.0
C234 C 0.12719 0.88891 0.83414 0.0
C235 C 0.07303 0.89694 0.73408 0.0
C236 C 0.08477 0.93897 0.71423 0.0
H237 H 0.08291 0.84075 0.808 0.0
H238 H 0.0468 0.88327 0.70558 0.0
S239 S 0.17299 0.99521 0.7994 0.0
N240 N 0.173 0.94842 0.84721 0.0
N241 N 0.13418 0.9946 0.73654 0.0
C242 C 0.11944 0.95497 0.75229 0.0
C243 C 0.14046 0.93001 0.81244 0.0
loop_
_geom_bond_atom_site_label_1
_geom_bond_atom_site_label_2
_geom_bond_distance
_geom_bond_site_symmetry_2
_ccdc_geom_bond_type
O0 Cd1 2.300 1_556 S
O0 C7 1.275 . S
Cd1 O0 2.300 1_554 S
Cd1 O9 2.381 1_554 S
Cd1 O10 2.378 . S
O2 Cd3 2.385 . S
O2 C7 1.255 1_554 S
Cd3 O2 2.385 . S
Cd3 O4 2.317 . S
O4 Cd3 2.317 . S
O4 C5 1.232 . S
C5 O4 1.232 . S
C5 O6 1.218 . S
O6 C5 1.218 . S
C7 O0 1.275 . S
C7 O2 1.255 1_556 S
C8 O9 1.258 1_554 S
C8 O10 1.256 . S
O9 Cd1 2.381 1_556 S
O9 C8 1.258 1_556 S
O10 Cd1 2.378 . S
O10 C8 1.256 . S
O11 Cd12 2.300 . S
O11 C18 1.275 . S
Cd12 O11 2.300 . S
Cd12 O20 2.381 . S
Cd12 O21 2.378 . S
O13 Cd14 2.385 . S
O13 C18 1.255 . S
Cd14 O13 2.385 . S
Cd14 O15 2.317 . S
O15 Cd14 2.317 . S
O15 C16 1.232 . S
C16 O15 1.232 . S
C16 O17 1.218 . S
O17 C16 1.218 . S
C18 O11 1.275 . S
C18 O13 1.255 . S
C19 O20 1.258 . S
C19 O21 1.256 . S
O20 Cd12 2.381 . S
O20 C19 1.258 . S
O21 Cd12 2.378 . S
O21 C19 1.256 . S
O22 Cd23 2.300 . S
O22 C29 1.275 . S
Cd23 O22 2.300 . S
Cd23 O31 2.381 . S
Cd23 O32 2.378 . S
O24 Cd25 2.385 . S
O24 C29 1.255 . S
Cd25 O24 2.385 . S
Cd25 O26 2.317 1_554 S
O26 Cd25 2.317 1_556 S
O26 C27 1.232 . S
C27 O26 1.232 . S
C27 O28 1.218 . S
O28 C27 1.218 . S
C29 O22 1.275 . S
C29 O24 1.255 . S
C30 O31 1.258 . S
C30 O32 1.256 . S
O31 Cd23 2.381 . S
O31 C30 1.258 . S
O32 Cd23 2.378 . S
O32 C30 1.256 . S
O33 Cd34 2.300 . S
O33 C40 1.275 . S
Cd34 O33 2.300 . S
Cd34 O42 2.381 . S
Cd34 O43 2.378 . S
O35 Cd36 2.385 . S
O35 C40 1.255 . S
Cd36 O35 2.385 . S
Cd36 O37 2.317 . S
O37 Cd36 2.317 . S
O37 C38 1.232 . S
C38 O37 1.232 . S
C38 O39 1.218 . S
O39 C38 1.218 . S
C40 O33 1.275 . S
C40 O35 1.255 . S
C41 O42 1.258 . S
C41 O43 1.256 . S
O42 Cd34 2.381 . S
O42 C41 1.258 . S
O43 Cd34 2.378 . S
O43 C41 1.256 . S
C44 O60 1.251 . S
C44 O62 1.254 . S
N45 C46 1.333 . S
N45 C50 1.307 . S
N45 Zn51 2.020 . S
C46 N45 1.333 . S
C46 C47 1.379 . S
C46 H64 0.952 . S
C47 C46 1.379 . S
C47 C48 1.390 . S
C47 H74 0.949 . S
C48 C47 1.390 . S
C48 C49 1.357 . S
C49 C48 1.357 . S
C49 C50 1.370 . S
C49 H75 0.950 . S
C50 N45 1.307 . S
C50 C49 1.370 . S
C50 H68 0.948 . S
Zn51 N45 2.020 . S
Zn51 O60 2.039 1_545 S
Zn51 O66 2.034 1_545 S
Zn51 O70 2.041 . S
Zn51 O72 2.024 1_455 S
C52 O71 1.246 . S
C52 O72 1.249 . S
N53 C54 1.307 . S
N53 C55 1.333 . S
N53 Zn59 2.020 . S
C54 N53 1.307 . S
C54 C58 1.370 . S
C54 H65 0.948 . S
C55 N53 1.333 . S
C55 C56 1.379 . S
C55 H63 0.952 . S
C56 C55 1.379 . S
C56 C57 1.390 . S
C56 H76 0.949 . S
C57 C56 1.390 . S
C57 C58 1.357 . S
C58 C54 1.370 . S
C58 C57 1.357 . S
C58 H77 0.950 . S
Zn59 N53 2.020 . S
Zn59 O62 2.025 1_655 S
Zn59 O67 2.024 1_655 S
Zn59 O69 2.039 1_565 S
Zn59 O71 2.034 1_565 S
O60 C44 1.251 . S
O60 Zn51 2.039 1_565 S
C61 O66 1.246 . S
C61 O67 1.249 . S
O62 C44 1.254 . S
O62 Zn59 2.025 1_455 S
H63 C55 0.952 . S
H64 C46 0.952 . S
H65 C54 0.948 . S
O66 Zn51 2.034 1_565 S
O66 C61 1.246 . S
O67 Zn59 2.024 1_455 S
O67 C61 1.249 . S
H68 C50 0.948 . S
O69 Zn59 2.039 1_545 S
O69 C73 1.251 . S
O70 Zn51 2.041 . S
O70 C73 1.232 1_455 S
O71 C52 1.246 . S
O71 Zn59 2.034 1_545 S
O72 Zn51 2.024 1_655 S
O72 C52 1.249 . S
C73 O69 1.251 . S
C73 O70 1.232 1_655 S
H74 C47 0.949 . S
H75 C49 0.950 . S
H76 C56 0.949 . S
H77 C58 0.950 . S
C78 O94 1.251 . S
C78 O96 1.254 . S
N79 C80 1.333 . S
N79 C84 1.307 . S
N79 Zn85 2.020 . S
C80 N79 1.333 . S
C80 C81 1.379 . S
C80 H98 0.952 1_554 S
C81 C80 1.379 . S
C81 C82 1.390 . S
C81 H108 0.949 . S
C82 C81 1.390 . S
C82 C83 1.357 . S
C83 C82 1.357 . S
C83 C84 1.370 . S
C83 H109 0.950 . S
C84 N79 1.307 . S
C84 C83 1.370 . S
C84 H102 0.948 . S
Zn85 N79 2.020 . S
Zn85 O94 2.039 1_554 S
Zn85 O100 2.034 . S
Zn85 O104 2.025 . S
Zn85 O106 2.024 1_554 S
C86 O105 1.246 . S
C86 O106 1.249 . S
N87 C88 1.307 1_554 S
N87 C89 1.333 . S
N87 Zn93 2.020 . S
C88 N87 1.307 1_556 S
C88 C92 1.370 . S
C88 H99 0.948 . S
C89 N87 1.333 . S
C89 C90 1.379 . S
C89 H97 0.952 . S
C90 C89 1.379 . S
C90 C91 1.390 . S
C90 H110 0.949 . S
C91 C90 1.390 . S
C91 C92 1.357 1_554 S
C92 C88 1.370 . S
C92 C91 1.357 1_556 S
C92 H111 0.950 . S
Zn93 N87 2.020 . S
Zn93 O96 2.025 1_554 S
Zn93 O101 2.024 . S
Zn93 O103 2.039 . S
Zn93 O105 2.034 1_554 S
O94 C78 1.251 . S
O94 Zn85 2.039 1_556 S
C95 O100 1.246 . S
C95 O101 1.249 . S
O96 C78 1.254 . S
O96 Zn93 2.025 1_556 S
H97 C89 0.952 . S
H98 C80 0.952 1_556 S
H99 C88 0.948 . S
O100 Zn85 2.034 . S
O100 C95 1.246 . S
O101 Zn93 2.024 . S
O101 C95 1.249 . S
H102 C84 0.948 . S
O103 Zn93 2.039 . S
O103 C107 1.251 . S
O104 Zn85 2.025 . S
O104 C107 1.254 . S
O105 C86 1.246 . S
O105 Zn93 2.034 1_556 S
O106 Zn85 2.024 1_556 S
O106 C86 1.249 . S
C107 O103 1.251 . S
C107 O104 1.254 . S
H108 C81 0.949 . S
H109 C83 0.950 . S
H110 C90 0.949 . S
H111 C92 0.950 . S
C112 C113 1.369 . S
C112 C114 1.419 . S
C112 H116 0.930 . S
C113 C112 1.369 . S
C113 C122 1.429 . S
C114 C112 1.419 . S
C114 C115 1.363 . S
C114 H117 0.929 . S
C115 C114 1.363 . S
C115 C121 1.428 . S
H116 C112 0.930 . S
H117 C114 0.929 . S
S118 N119 1.613 . S
S118 N120 1.610 . S
N119 S118 1.613 . S
N119 C122 1.350 . S
N120 S118 1.610 . S
N120 C121 1.351 . S
C121 C115 1.428 . S
C121 N120 1.351 . S
C121 C122 1.434 . S
C122 C113 1.429 . S
C122 N119 1.350 . S
C122 C121 1.434 . S
C123 C124 1.369 1_556 S
C123 C125 1.419 . S
C123 H127 0.930 . S
C124 C123 1.369 1_554 S
C124 C133 1.429 . S
C125 C123 1.419 . S
C125 C126 1.363 1_556 S
C125 H128 0.929 . S
C126 C125 1.363 1_554 S
C126 C132 1.428 . S
H127 C123 0.930 . S
H128 C125 0.929 . S
S129 N130 1.613 . S
S129 N131 1.610 . S
N130 S129 1.613 . S
N130 C133 1.350 . S
N131 S129 1.610 . S
N131 C132 1.351 . S
C132 C126 1.428 . S
C132 N131 1.351 . S
C132 C133 1.434 . S
C133 C124 1.429 . S
C133 N130 1.350 . S
C133 C132 1.434 . S
C134 C135 1.369 . S
C134 C136 1.419 . S
C134 H138 0.930 . S
C135 C134 1.369 . S
C135 C144 1.429 . S
C136 C134 1.419 . S
C136 C137 1.363 . S
C136 H139 0.929 . S
C137 C136 1.363 . S
C137 C143 1.428 . S
H138 C134 0.930 . S
H139 C136 0.929 . S
S140 N141 1.613 . S
S140 N142 1.610 . S
N141 S140 1.613 . S
N141 C144 1.350 . S
N142 S140 1.610 . S
N142 C143 1.351 . S
C143 C137 1.428 . S
C143 N142 1.351 . S
C143 C144 1.434 . S
C144 C135 1.429 . S
C144 N141 1.350 . S
C144 C143 1.434 . S
C145 C146 1.369 . S
C145 C147 1.419 . S
C145 H149 0.930 1_554 S
C146 C145 1.369 . S
C146 C155 1.429 . S
C147 C145 1.419 . S
C147 C148 1.363 . S
C147 H150 0.929 1_554 S
C148 C147 1.363 . S
C148 C154 1.428 . S
H149 C145 0.930 1_556 S
H150 C147 0.929 1_556 S
S151 N152 1.613 . S
S151 N153 1.610 . S
N152 S151 1.613 . S
N152 C155 1.350 . S
N153 S151 1.610 . S
N153 C154 1.351 . S
C154 C148 1.428 . S
C154 N153 1.351 . S
C154 C155 1.434 . S
C155 C146 1.429 . S
C155 N152 1.350 . S
C155 C154 1.434 . S
C156 C157 1.369 . S
C156 C158 1.419 . S
C156 H160 0.930 . S
C157 C156 1.369 . S
C157 C166 1.429 . S
C158 C156 1.419 . S
C158 C159 1.363 . S
C158 H161 0.929 . S
C159 C158 1.363 . S
C159 C165 1.428 . S
H160 C156 0.930 . S
H161 C158 0.929 . S
S162 N163 1.613 . S
S162 N164 1.610 . S
N163 S162 1.613 . S
N163 C166 1.350 . S
N164 S162 1.610 . S
N164 C165 1.351 . S
C165 C159 1.428 . S
C165 N164 1.351 . S
C165 C166 1.434 . S
C166 C157 1.429 . S
C166 N163 1.350 . S
C166 C165 1.434 . S
C167 C168 1.369 . S
C167 C169 1.419 . S
C167 H171 0.930 . S
C168 C167 1.369 . S
C168 C177 1.429 . S
C169 C167 1.419 . S
C169 C170 1.363 . S
C169 H172 0.929 . S
C170 C169 1.363 . S
C170 C176 1.428 . S
H171 C167 0.930 . S
H172 C169 0.929 . S
S173 N174 1.613 . S
S173 N175 1.610 . S
N174 S173 1.613 . S
N174 C177 1.350 . S
N175 S173 1.610 . S
N175 C176 1.351 . S
C176 C170 1.428 . S
C176 N175 1.351 . S
C176 C177 1.434 . S
C177 C168 1.429 . S
C177 N174 1.350 . S
C177 C176 1.434 . S
C178 C179 1.369 . S
C178 C180 1.419 . S
C178 H182 0.930 . S
C179 C178 1.369 . S
C179 C188 1.429 . S
C180 C178 1.419 . S
C180 C181 1.363 . S
C180 H183 0.929 . S
C181 C180 1.363 . S
C181 C187 1.428 . S
H182 C178 0.930 . S
H183 C180 0.929 . S
S184 N185 1.613 . S
S184 N186 1.610 . S
N185 S184 1.613 . S
N185 C188 1.350 . S
N186 S184 1.610 . S
N186 C187 1.351 . S
C187 C181 1.428 . S
C187 N186 1.351 . S
C187 C188 1.434 . S
C188 C179 1.429 . S
C188 N185 1.350 . S
C188 C187 1.434 . S
C189 C190 1.369 . S
C189 C191 1.419 . S
C189 H193 0.930 . S
C190 C189 1.369 . S
C190 C199 1.429 . S
C191 C189 1.419 . S
C191 C192 1.363 . S
C191 H194 0.929 . S
C192 C191 1.363 . S
C192 C198 1.428 . S
H193 C189 0.930 . S
H194 C191 0.929 . S
S195 N196 1.613 . S
S195 N197 1.610 . S
N196 S195 1.613 . S
N196 C199 1.350 . S
N197 S195 1.610 . S
N197 C198 1.351 . S
C198 C192 1.428 . S
C198 N197 1.351 . S
C198 C199 1.434 . S
C199 C190 1.429 . S
C199 N196 1.350 . S
C199 C198 1.434 . S
C200 C201 1.369 . S
C200 C202 1.419 . S
C200 H204 0.930 . S
C201 C200 1.369 . S
C201 C210 1.429 . S
C202 C200 1.419 . S
C202 C203 1.363 . S
C202 H205 0.929 . S
C203 C202 1.363 . S
C203 C209 1.428 . S
H204 C200 0.930 . S
H205 C202 0.929 . S
S206 N207 1.613 . S
S206 N208 1.610 . S
N207 S206 1.613 . S
N207 C210 1.350 . S
N208 S206 1.610 . S
N208 C209 1.351 . S
C209 C203 1.428 . S
C209 N208 1.351 . S
C209 C210 1.434 . S
C210 C201 1.429 . S
C210 N207 1.350 . S
C210 C209 1.434 . S
C211 C212 1.369 . S
C211 C213 1.419 . S
C211 H215 0.930 . S
C212 C211 1.369 . S
C212 C221 1.429 . S
C213 C211 1.419 . S
C213 C214 1.363 . S
C213 H216 0.929 . S
C214 C213 1.363 . S
C214 C220 1.428 . S
H215 C211 0.930 . S
H216 C213 0.929 . S
S217 N218 1.613 . S
S217 N219 1.610 . S
N218 S217 1.613 . S
N218 C221 1.350 . S
N219 S217 1.610 . S
N219 C220 1.351 . S
C220 C214 1.428 . S
C220 N219 1.351 . S
C220 C221 1.434 . S
C221 C212 1.429 . S
C221 N218 1.350 . S
C221 C220 1.434 . S
C222 C223 1.369 . S
C222 C224 1.419 . S
C222 H226 0.930 . S
C223 C222 1.369 . S
C223 C232 1.429 . S
C224 C222 1.419 . S
C224 C225 1.363 . S
C224 H227 0.929 . S
C225 C224 1.363 . S
C225 C231 1.428 . S
H226 C222 0.930 . S
H227 C224 0.929 . S
S228 N229 1.613 . S
S228 N230 1.610 . S
N229 S228 1.613 . S
N229 C232 1.350 . S
N230 S228 1.610 . S
N230 C231 1.351 . S
C231 C225 1.428 . S
C231 N230 1.351 . S
C231 C232 1.434 . S
C232 C223 1.429 . S
C232 N229 1.350 . S
C232 C231 1.434 . S
C233 C234 1.369 . S
C233 C235 1.419 . S
C233 H237 0.930 . S
C234 C233 1.369 . S
C234 C243 1.429 . S
C235 C233 1.419 . S
C235 C236 1.363 . S
C235 H238 0.929 . S
C236 C235 1.363 . S
C236 C242 1.428 . S
H237 C233 0.930 . S
H238 C235 0.929 . S
S239 N240 1.613 . S
S239 N241 1.610 . S
N240 S239 1.613 . S
N240 C243 1.350 . S
N241 S239 1.610 . S
N241 C242 1.351 . S
C242 C236 1.428 . S
C242 N241 1.351 . S
C242 C243 1.434 . S
C243 C234 1.429 . S
C243 N240 1.350 . S
C243 C242 1.434 . S
C115 C48 1.529 . S
C113 C41 1.509 . S
C124 C8 1.505 . S
C126 C91 1.517 . S
C135 C19 1.511 . S
C137 C57 1.542 . S
C146 C30 1.524 . S
C148 C82 1.520 . S
C159 C44 1.569 . S
C157 C5 1.340 . S
C170 C86 1.646 . S
C168 C18 1.593 . S
C179 C29 1.552 . S
C181 C52 1.572 . S
C190 C40 1.588 . S
C192 C78 1.652 . S
C203 C107 1.414 . S
C201 C16 1.160 . S
C214 C73 1.428 . S
C212 C27 1.283 . S
C225 C95 1.406 . S
C223 C38 1.172 . S
C234 C7 1.371 . S
C236 C61 1.413 . S
