# Generated by pormake.
# Topology bcu-b, (8,8)-cn, num edge types: 1
# Building blocks:
#     Node 0, Type 0, BuildingBlock: TAGTUT_clean_sbu_3, # of connection points: 8
#     Node 1, Type 1, BuildingBlock: TAGTUT_clean_sbu_3, # of connection points: 8
#     Edge 2, Type (0, 1), BuildingBlock: OJICUG_clean_linker_0, # of connection points: 2
#     Edge 3, Type (0, 1), BuildingBlock: OJICUG_clean_linker_0, # of connection points: 2
#     Edge 4, Type (0, 1), BuildingBlock: OJICUG_clean_linker_0, # of connection points: 2
#     Edge 5, Type (0, 1), BuildingBlock: OJICUG_clean_linker_0, # of connection points: 2
#     Edge 6, Type (0, 1), BuildingBlock: OJICUG_clean_linker_0, # of connection points: 2
#     Edge 7, Type (0, 1), BuildingBlock: OJICUG_clean_linker_0, # of connection points: 2
#     Edge 8, Type (0, 1), BuildingBlock: OJICUG_clean_linker_0, # of connection points: 2
#     Edge 9, Type (0, 1), BuildingBlock: OJICUG_clean_linker_0, # of connection points: 2
# Relax obj value: 0.008
# Max RMSD: 0.054
# Mean RMSD: 0.054
data_MOF--net-bcu-b--node1-TAGTUT_clean_sbu_3--node2-TAGTUT_clean_sbu_3--edge1-OJICUG_clean_linker_0
_symmetry_space_group_name_H-M    P1
_symmetry_Int_Tables_number       1
_symmetry_cell_setting            triclinic
loop_
_symmetry_equiv_pos_as_xyz
'x, y, z'
_cell_length_a     15.290587
_cell_length_b     15.359361
_cell_length_c     16.17609
_cell_angle_alpha  89.217188
_cell_angle_beta   90.392575
_cell_angle_gamma 110.01701
loop_
_atom_site_label
_atom_site_type_symbol
_atom_site_fract_x
_atom_site_fract_y
_atom_site_fract_z
_atom_type_partial_charge
C0 C 0.15515 0.10104 0.08806 0.0
C1 C 0.24437 0.82578 0.0259 0.0
C2 C 0.10031 0.80264 0.79651 0.0
Mg3 Mg 0.9854 0.1648 0.02762 0.0
Mg4 Mg 0.7777 0.01058 -0.01112 0.0
O5 O 0.90525 0.05149 0.96848 0.0
Mg6 Mg 0.98173 0.97057 -0.02115 0.0
O7 O 0.06951 0.90133 -0.0104 0.0
Mg8 Mg 0.18 -0.01452 0.92798 0.0
Mg9 Mg 0.03618 0.7744 0.97292 0.0
C10 C 0.79235 0.8547 0.87041 0.0
O11 O 0.89348 0.86852 0.07687 0.0
O12 O 0.89787 0.24176 0.96373 0.0
O13 O 0.91437 0.73217 0.05138 0.0
O14 O 0.88429 0.13308 0.13799 0.0
O15 O 0.75997 0.13124 0.93632 0.0
O16 O 0.75283 0.01422 0.11833 0.0
O17 O 0.0788 0.05871 0.87893 0.0
O18 O 0.07838 0.19793 0.91446 0.0
C19 C 0.10322 0.14604 0.86592 0.0
C20 C 0.81585 0.21517 0.93236 0.0
O21 O 0.88087 0.87706 0.88282 0.0
O22 O 0.26568 0.90655 -0.00743 0.0
O23 O 0.74065 0.88922 0.91152 0.0
O24 O 0.15168 0.88363 0.81935 0.0
O25 O 0.16199 0.76587 0.02422 0.0
O26 O 0.03796 0.74919 0.84382 0.0
O27 O 0.06715 0.07142 0.07648 0.0
O28 O 0.20935 0.07943 0.03926 0.0
C29 C 0.80462 0.07947 0.16319 0.0
C30 C 0.87595 0.78129 0.09114 0.0
C31 C 0.6336 0.62172 0.59306 0.0
C32 C 0.68808 0.33033 0.64104 0.0
C33 C 0.63158 0.26083 0.38343 0.0
Mg34 Mg 0.48756 0.67689 0.47634 0.0
Mg35 Mg 0.28904 0.51983 0.42226 0.0
O36 O 0.41745 0.55311 0.42939 0.0
Mg37 Mg 0.48094 0.47272 0.47771 0.0
O38 O 0.55437 0.40181 0.5259 0.0
Mg39 Mg 0.68177 0.46747 0.48213 0.0
Mg40 Mg 0.51366 0.27324 0.52791 0.0
C41 C 0.31158 0.33494 0.36344 0.0
O42 O 0.36314 0.39222 0.56918 0.0
O43 O 0.42681 0.7373 0.36556 0.0
O44 O 0.37198 0.24845 0.56186 0.0
O45 O 0.36387 0.67623 0.55732 0.0
O46 O 0.30085 0.61753 0.32584 0.0
O47 O 0.23239 0.56058 0.52927 0.0
O48 O 0.60718 0.53659 0.38779 0.0
O49 O 0.60474 0.68036 0.39469 0.0
C50 C 0.64025 0.62262 0.36763 0.0
C51 C 0.36058 0.69864 0.31434 0.0
O52 O 0.39862 0.36081 0.38338 0.0
O53 O 0.73207 0.39765 0.59221 0.0
O54 O 0.25802 0.37925 0.38476 0.0
O55 O 0.67831 0.34554 0.39885 0.0
O56 O 0.60569 0.27464 0.62642 0.0
O57 O 0.55596 0.21771 0.42102 0.0
O58 O 0.54786 0.59385 0.57081 0.0
O59 O 0.6892 0.58323 0.56624 0.0
C60 C 0.27731 0.63256 0.56991 0.0
C61 C 0.33167 0.30445 0.58584 0.0
C62 C 0.29218 0.18674 0.17617 0.0
C63 C 0.19531 0.15523 0.16225 0.0
H64 H 0.40545 0.26663 0.25259 0.0
C65 C 0.13719 0.17269 0.22158 0.0
H66 H 0.33887 0.17284 0.13233 0.0
C67 C 0.17533 0.22478 0.29103 0.0
C68 C 0.27247 0.2612 0.30245 0.0
H69 H 0.0623 0.14761 0.21382 0.0
H70 H 0.1286 0.23994 0.33406 0.0
C71 C 0.33046 0.23919 0.24576 0.0
C72 C 0.6655 0.07576 0.24685 0.0
C73 C 0.76233 0.11178 0.23322 0.0
H74 H 0.54739 0.09562 0.30395 0.0
C75 C 0.81525 0.19292 0.27432 0.0
H76 H 0.62243 0.01353 0.21604 0.0
C77 C 0.772 0.24117 0.32184 0.0
C78 C 0.67483 0.20859 0.33129 0.0
H79 H 0.88995 0.2225 0.26599 0.0
H80 H 0.8151 0.30471 0.35078 0.0
C81 C 0.62219 0.12356 0.29596 0.0
C82 C 0.80765 0.79413 0.22677 0.0
C83 C 0.81763 0.73793 0.16272 0.0
H84 H 0.74865 0.80076 0.34392 0.0
C85 C 0.77764 0.64084 0.17115 0.0
H86 H 0.83982 0.86886 0.22341 0.0
C87 C 0.72435 0.60113 0.24093 0.0
C88 C 0.71155 0.65822 0.30323 0.0
H89 H 0.7857 0.59582 0.12305 0.0
H90 H 0.69003 0.52669 0.24428 0.0
C91 C 0.75628 0.75476 0.29646 0.0
C92 C 0.30837 0.71524 0.09034 0.0
C93 C 0.30923 0.80635 0.08392 0.0
H94 H 0.32491 0.61033 0.16974 0.0
C95 C 0.3471 0.86851 0.14866 0.0
H96 H 0.27977 0.66648 0.04105 0.0
C97 C 0.37165 0.83598 0.22353 0.0
C98 C 0.35804 0.74144 0.23319 0.0
H99 H 0.34758 0.93918 0.14496 0.0
H100 H 0.39291 0.88239 0.27547 0.0
C101 C 0.33261 0.68303 0.16445 0.0
C102 C 0.09339 0.66639 0.70936 0.0
C103 C 0.13204 0.762 0.72526 0.0
H104 H 0.10994 0.54958 0.64854 0.0
C105 C 0.21442 0.81458 0.68448 0.0
H106 H 0.02999 0.62372 0.73973 0.0
C107 C 0.26133 0.77171 0.63502 0.0
C108 C 0.22604 0.67548 0.62331 0.0
H109 H 0.24606 0.88839 0.69452 0.0
H110 H 0.32598 0.81425 0.60642 0.0
C111 C 0.1398 0.62358 0.65827 0.0
C112 C 0.18976 0.28442 0.7786 0.0
C113 C 0.15498 0.18753 0.79031 0.0
H114 H 0.27152 0.3983 0.70274 0.0
C115 C 0.16664 0.13056 0.72749 0.0
H116 H 0.18026 0.33023 0.82532 0.0
C117 C 0.21667 0.16953 0.65666 0.0
C118 C 0.25738 0.26636 0.64752 0.0
H119 H 0.13857 0.05575 0.73351 0.0
H120 H 0.22758 0.12342 0.61089 0.0
C121 C 0.24066 0.32357 0.70775 0.0
C122 C 0.85494 0.32179 0.81139 0.0
C123 C 0.79099 0.27566 0.87332 0.0
H124 H 0.87195 0.37447 0.6865 0.0
C125 C 0.69678 0.26399 0.86341 0.0
H126 H 0.92812 0.33081 0.81775 0.0
C127 C 0.66496 0.28673 0.78861 0.0
C128 C 0.72693 0.32195 0.72266 0.0
H129 H 0.64655 0.2291 0.91063 0.0
H130 H 0.5908 0.2719 0.78103 0.0
C131 C 0.82286 0.34513 0.73597 0.0
C132 C 0.80682 0.77942 0.73859 0.0
C133 C 0.74962 0.79513 0.79962 0.0
H134 H 0.81477 0.71695 0.62385 0.0
C135 C 0.65217 0.76019 0.78836 0.0
H136 H 0.88198 0.80699 0.74402 0.0
C137 C 0.61293 0.70784 0.71856 0.0
C138 C 0.6707 0.6903 0.65891 0.0
H139 H 0.60616 0.7723 0.83392 0.0
H140 H 0.53789 0.67854 0.71288 0.0
C141 C 0.76797 0.72852 0.66899 0.0
loop_
_geom_bond_atom_site_label_1
_geom_bond_atom_site_label_2
_geom_bond_distance
_geom_bond_site_symmetry_2
_ccdc_geom_bond_type
C0 O27 1.312 . S
C0 O28 1.208 . S
C1 O22 1.331 . S
C1 O25 1.244 . S
C2 O24 1.264 . S
C2 O26 1.273 . S
Mg3 O5 1.937 1_455 S
Mg3 O12 2.085 1_455 S
Mg3 O14 2.020 1_456 S
Mg3 O18 2.034 . S
Mg3 O27 2.288 1_556 S
Mg4 O5 1.963 . S
Mg4 O15 1.942 . S
Mg4 O16 1.955 1_556 S
Mg4 O23 1.986 1_545 S
O5 Mg3 1.937 1_655 S
O5 Mg4 1.963 . S
O5 Mg6 1.915 1_546 S
Mg6 O5 1.915 1_564 S
Mg6 O7 1.915 1_655 S
Mg6 O11 2.013 . S
Mg6 O17 2.114 1_664 S
Mg6 O21 2.013 1_554 S
Mg6 O27 2.114 1_665 S
O7 Mg6 1.915 1_455 S
O7 Mg8 1.937 1_565 S
O7 Mg9 1.963 . S
Mg8 O7 1.937 1_545 S
Mg8 O17 2.286 1_554 S
Mg8 O22 2.087 1_545 S
Mg8 O24 2.018 1_544 S
Mg8 O28 2.036 . S
Mg9 O7 1.963 . S
Mg9 O13 1.986 1_455 S
Mg9 O25 1.942 . S
Mg9 O26 1.955 1_554 S
C10 O21 1.191 . S
C10 O23 1.307 . S
O11 Mg6 2.013 . S
O11 C30 1.191 . S
O12 Mg3 2.085 1_655 S
O12 C20 1.331 . S
O13 Mg9 1.986 1_655 S
O13 C30 1.307 . S
O14 Mg3 2.020 1_654 S
O14 C29 1.264 . S
O15 Mg4 1.942 . S
O15 C20 1.244 . S
O16 Mg4 1.955 1_554 S
O16 C29 1.273 . S
O17 Mg6 2.114 1_446 S
O17 Mg8 2.286 1_556 S
O17 C19 1.312 . S
O18 Mg3 2.034 . S
O18 C19 1.208 . S
C19 O17 1.312 . S
C19 O18 1.208 . S
C20 O12 1.331 . S
C20 O15 1.244 . S
O21 Mg6 2.013 1_556 S
O21 C10 1.191 . S
O22 C1 1.331 . S
O22 Mg8 2.087 1_565 S
O23 Mg4 1.986 1_565 S
O23 C10 1.307 . S
O24 C2 1.264 . S
O24 Mg8 2.018 1_566 S
O25 C1 1.244 . S
O25 Mg9 1.942 . S
O26 C2 1.273 . S
O26 Mg9 1.955 1_556 S
O27 C0 1.312 . S
O27 Mg3 2.288 1_554 S
O27 Mg6 2.114 1_445 S
O28 C0 1.208 . S
O28 Mg8 2.036 . S
C29 O14 1.264 . S
C29 O16 1.273 . S
C30 O11 1.191 . S
C30 O13 1.307 . S
C31 O58 1.312 . S
C31 O59 1.208 . S
C32 O53 1.331 . S
C32 O56 1.244 . S
C33 O55 1.264 . S
C33 O57 1.273 . S
Mg34 O36 1.936 . S
Mg34 O43 2.081 . S
Mg34 O45 2.023 . S
Mg34 O49 2.031 . S
Mg34 O58 2.291 . S
Mg35 O36 1.963 . S
Mg35 O46 1.942 . S
Mg35 O47 1.955 . S
Mg35 O54 1.986 . S
O36 Mg34 1.936 . S
O36 Mg35 1.963 . S
O36 Mg37 1.915 . S
Mg37 O36 1.915 . S
Mg37 O38 1.915 . S
Mg37 O42 2.013 . S
Mg37 O48 2.114 . S
Mg37 O52 2.013 . S
Mg37 O58 2.114 . S
O38 Mg37 1.915 . S
O38 Mg39 1.936 . S
O38 Mg40 1.963 . S
Mg39 O38 1.936 . S
Mg39 O48 2.291 . S
Mg39 O53 2.081 . S
Mg39 O55 2.023 . S
Mg39 O59 2.031 . S
Mg40 O38 1.963 . S
Mg40 O44 1.986 . S
Mg40 O56 1.942 . S
Mg40 O57 1.955 . S
C41 O52 1.191 . S
C41 O54 1.307 . S
O42 Mg37 2.013 . S
O42 C61 1.191 . S
O43 Mg34 2.081 . S
O43 C51 1.331 . S
O44 Mg40 1.986 . S
O44 C61 1.307 . S
O45 Mg34 2.023 . S
O45 C60 1.264 . S
O46 Mg35 1.942 . S
O46 C51 1.244 . S
O47 Mg35 1.955 . S
O47 C60 1.273 . S
O48 Mg37 2.114 . S
O48 Mg39 2.291 . S
O48 C50 1.312 . S
O49 Mg34 2.031 . S
O49 C50 1.208 . S
C50 O48 1.312 . S
C50 O49 1.208 . S
C51 O43 1.331 . S
C51 O46 1.244 . S
O52 Mg37 2.013 . S
O52 C41 1.191 . S
O53 C32 1.331 . S
O53 Mg39 2.081 . S
O54 Mg35 1.986 . S
O54 C41 1.307 . S
O55 C33 1.264 . S
O55 Mg39 2.023 . S
O56 C32 1.244 . S
O56 Mg40 1.942 . S
O57 C33 1.273 . S
O57 Mg40 1.955 . S
O58 C31 1.312 . S
O58 Mg34 2.291 . S
O58 Mg37 2.114 . S
O59 C31 1.208 . S
O59 Mg39 2.031 . S
C60 O45 1.264 . S
C60 O47 1.273 . S
C61 O42 1.191 . S
C61 O44 1.307 . S
C62 C63 1.387 . S
C62 H66 0.950 . S
C62 C71 1.390 . S
C63 C62 1.387 . S
C63 C65 1.387 . S
H64 C71 0.950 . S
C65 C63 1.387 . S
C65 C67 1.390 . S
C65 H69 0.950 . S
H66 C62 0.950 . S
C67 C65 1.390 . S
C67 C68 1.387 . S
C67 H70 0.950 . S
C68 C67 1.387 . S
C68 C71 1.387 . S
H69 C65 0.950 . S
H70 C67 0.950 . S
C71 C62 1.390 . S
C71 H64 0.950 . S
C71 C68 1.387 . S
C72 C73 1.387 . S
C72 H76 0.950 . S
C72 C81 1.390 . S
C73 C72 1.387 . S
C73 C75 1.387 . S
H74 C81 0.950 . S
C75 C73 1.387 . S
C75 C77 1.390 . S
C75 H79 0.950 . S
H76 C72 0.950 . S
C77 C75 1.390 . S
C77 C78 1.387 . S
C77 H80 0.950 . S
C78 C77 1.387 . S
C78 C81 1.387 . S
H79 C75 0.950 . S
H80 C77 0.950 . S
C81 C72 1.390 . S
C81 H74 0.950 . S
C81 C78 1.387 . S
C82 C83 1.387 . S
C82 H86 0.950 . S
C82 C91 1.390 . S
C83 C82 1.387 . S
C83 C85 1.387 . S
H84 C91 0.950 . S
C85 C83 1.387 . S
C85 C87 1.390 . S
C85 H89 0.950 . S
H86 C82 0.950 . S
C87 C85 1.390 . S
C87 C88 1.387 . S
C87 H90 0.950 . S
C88 C87 1.387 . S
C88 C91 1.387 . S
H89 C85 0.950 . S
H90 C87 0.950 . S
C91 C82 1.390 . S
C91 H84 0.950 . S
C91 C88 1.387 . S
C92 C93 1.387 . S
C92 H96 0.950 . S
C92 C101 1.390 . S
C93 C92 1.387 . S
C93 C95 1.387 . S
H94 C101 0.950 . S
C95 C93 1.387 . S
C95 C97 1.390 . S
C95 H99 0.950 . S
H96 C92 0.950 . S
C97 C95 1.390 . S
C97 C98 1.387 . S
C97 H100 0.950 . S
C98 C97 1.387 . S
C98 C101 1.387 . S
H99 C95 0.950 . S
H100 C97 0.950 . S
C101 C92 1.390 . S
C101 H94 0.950 . S
C101 C98 1.387 . S
C102 C103 1.387 . S
C102 H106 0.950 . S
C102 C111 1.390 . S
C103 C102 1.387 . S
C103 C105 1.387 . S
H104 C111 0.950 . S
C105 C103 1.387 . S
C105 C107 1.390 . S
C105 H109 0.950 . S
H106 C102 0.950 . S
C107 C105 1.390 . S
C107 C108 1.387 . S
C107 H110 0.950 . S
C108 C107 1.387 . S
C108 C111 1.387 . S
H109 C105 0.950 . S
H110 C107 0.950 . S
C111 C102 1.390 . S
C111 H104 0.950 . S
C111 C108 1.387 . S
C112 C113 1.387 . S
C112 H116 0.950 . S
C112 C121 1.390 . S
C113 C112 1.387 . S
C113 C115 1.387 . S
H114 C121 0.950 . S
C115 C113 1.387 . S
C115 C117 1.390 . S
C115 H119 0.950 . S
H116 C112 0.950 . S
C117 C115 1.390 . S
C117 C118 1.387 . S
C117 H120 0.950 . S
C118 C117 1.387 . S
C118 C121 1.387 . S
H119 C115 0.950 . S
H120 C117 0.950 . S
C121 C112 1.390 . S
C121 H114 0.950 . S
C121 C118 1.387 . S
C122 C123 1.387 . S
C122 H126 0.950 . S
C122 C131 1.390 . S
C123 C122 1.387 . S
C123 C125 1.387 . S
H124 C131 0.950 . S
C125 C123 1.387 . S
C125 C127 1.390 . S
C125 H129 0.950 . S
H126 C122 0.950 . S
C127 C125 1.390 . S
C127 C128 1.387 . S
C127 H130 0.950 . S
C128 C127 1.387 . S
C128 C131 1.387 . S
H129 C125 0.950 . S
H130 C127 0.950 . S
C131 C122 1.390 . S
C131 H124 0.950 . S
C131 C128 1.387 . S
C132 C133 1.387 . S
C132 H136 0.950 . S
C132 C141 1.390 . S
C133 C132 1.387 . S
C133 C135 1.387 . S
H134 C141 0.950 . S
C135 C133 1.387 . S
C135 C137 1.390 . S
C135 H139 0.950 . S
H136 C132 0.950 . S
C137 C135 1.390 . S
C137 C138 1.387 . S
C137 H140 0.950 . S
C138 C137 1.387 . S
C138 C141 1.387 . S
H139 C135 0.950 . S
H140 C137 0.950 . S
C141 C132 1.390 . S
C141 H134 0.950 . S
C141 C138 1.387 . S
C63 C0 1.341 . S
C68 C41 1.359 . S
C73 C29 1.609 . S
C78 C33 1.608 . S
C83 C30 1.361 . S
C88 C50 1.340 . S
C93 C1 1.480 . S
C98 C51 1.480 . S
C103 C2 1.608 . S
C108 C60 1.610 . S
C118 C61 1.361 . S
C113 C19 1.341 . S
C123 C20 1.479 . S
C128 C32 1.481 . S
C138 C31 1.340 . S
C133 C10 1.363 . S
