# Generated by pormake.
# Topology nia, (6,6)-cn, num edge types: 1
# Building blocks:
#     Node 0, Type 0, BuildingBlock: LEVNOQ01_clean_sbu_1, # of connection points: 6
#     Node 1, Type 0, BuildingBlock: LEVNOQ01_clean_sbu_1, # of connection points: 6
#     Node 2, Type 1, BuildingBlock: MIDCAF_clean_sbu_0, # of connection points: 6
#     Node 3, Type 1, BuildingBlock: MIDCAF_clean_sbu_0, # of connection points: 6
#     Edge 4, Type (0, 1), BuildingBlock: OJICUG_clean_linker_0, # of connection points: 2
#     Edge 5, Type (0, 1), BuildingBlock: OJICUG_clean_linker_0, # of connection points: 2
#     Edge 6, Type (0, 1), BuildingBlock: OJICUG_clean_linker_0, # of connection points: 2
#     Edge 7, Type (0, 1), BuildingBlock: OJICUG_clean_linker_0, # of connection points: 2
#     Edge 8, Type (0, 1), BuildingBlock: OJICUG_clean_linker_0, # of connection points: 2
#     Edge 9, Type (0, 1), BuildingBlock: OJICUG_clean_linker_0, # of connection points: 2
#     Edge 10, Type (0, 1), BuildingBlock: OJICUG_clean_linker_0, # of connection points: 2
#     Edge 11, Type (0, 1), BuildingBlock: OJICUG_clean_linker_0, # of connection points: 2
#     Edge 12, Type (0, 1), BuildingBlock: OJICUG_clean_linker_0, # of connection points: 2
#     Edge 13, Type (0, 1), BuildingBlock: OJICUG_clean_linker_0, # of connection points: 2
#     Edge 14, Type (0, 1), BuildingBlock: OJICUG_clean_linker_0, # of connection points: 2
#     Edge 15, Type (0, 1), BuildingBlock: OJICUG_clean_linker_0, # of connection points: 2
# Relax obj value: 0.123
# Max RMSD: 0.238
# Mean RMSD: 0.156
data_MOF--net-nia--node1-LEVNOQ01_clean_sbu_1--node2-MIDCAF_clean_sbu_0--edge1-OJICUG_clean_linker_0
_symmetry_space_group_name_H-M    P1
_symmetry_Int_Tables_number       1
_symmetry_cell_setting            triclinic
loop_
_symmetry_equiv_pos_as_xyz
'x, y, z'
_cell_length_a     17.880105
_cell_length_b     17.795121
_cell_length_c     25.260115
_cell_angle_alpha  89.999231
_cell_angle_beta   90.044846
_cell_angle_gamma 127.95317
loop_
_atom_site_label
_atom_site_type_symbol
_atom_site_fract_x
_atom_site_fract_y
_atom_site_fract_z
_atom_type_partial_charge
O0 O 0.00288 0.17397 0.97381 0.0
Mg1 Mg 0.08092 0.1318 0.00962 0.0
O2 O 0.90611 0.02382 0.95346 0.0
Mg3 Mg -0.02734 0.98917 0.01592 0.0
O4 O 0.12117 0.06905 0.96544 0.0
O5 O 0.20027 0.22664 0.97099 0.0
O6 O 0.03115 0.94105 0.07759 0.0
O7 O 0.95509 0.88037 0.95301 0.0
Mg8 Mg 0.83538 0.82257 0.02007 0.0
O9 O 0.82892 0.91434 0.063 0.0
O10 O 0.92251 0.7923 0.0533 0.0
O11 O 0.80465 0.80114 0.93782 0.0
O12 O 0.71913 0.75484 0.06645 0.0
C13 C 0.06405 0.14975 0.10827 0.0
C14 C 0.93314 0.10748 0.94704 0.0
C15 C 0.19254 0.15533 0.95196 0.0
C16 C -0.00396 0.85346 0.07996 0.0
C17 C 0.88374 0.82407 0.92334 0.0
C18 C 0.75087 0.83868 0.08207 0.0
O19 O 0.13455 0.1621 0.08781 0.0
O20 O -0.01321 0.09751 0.0825 0.0
O21 O 0.81649 0.0007 0.53964 0.0
Mg22 Mg 0.84521 0.9013 0.5248 0.0
O23 O 0.94954 0.07046 0.581 0.0
Mg24 Mg -0.01167 0.00592 0.51936 0.0
O25 O 0.90541 0.85874 0.57011 0.0
O26 O 0.7556 0.80543 0.57871 0.0
O27 O 0.0455 0.95462 0.45872 0.0
O28 O 0.09995 0.03529 0.58266 0.0
Mg29 Mg 0.19589 0.17996 0.50013 0.0
O30 O 0.0716 0.15065 0.47992 0.0
O31 O 0.19782 0.08201 0.45379 0.0
O32 O 0.21615 0.18936 0.58291 0.0
O33 O 0.21065 0.28878 0.46033 0.0
C34 C 0.8165 0.89674 0.42757 0.0
C35 C 0.87518 0.06166 0.57292 0.0
C36 C 0.82283 0.8026 0.5927 0.0
C37 C 0.12898 -0.00228 0.43961 0.0
C38 C 0.1722 0.10899 0.60511 0.0
C39 C 0.11931 0.2331 0.45754 0.0
O40 O 0.80044 0.82733 0.45267 0.0
O41 O 0.87784 0.97956 0.44744 0.0
Zn42 Zn 0.28186 0.66855 0.17856 0.0
Zn43 Zn 0.29123 0.70124 0.36791 0.0
Zn44 Zn 0.27748 0.67819 0.27026 0.0
C45 C 0.46796 0.76649 0.34042 0.0
C46 C 0.14865 0.50885 0.3523 0.0
O47 O 0.21259 0.74045 0.23489 0.0
O48 O 0.17487 0.6649 0.15872 0.0
C49 C 0.46109 0.79586 0.19609 0.0
O50 O 0.42764 0.75156 0.29518 0.0
O51 O 0.42042 0.74261 0.38248 0.0
O52 O 0.17919 0.57143 0.38775 0.0
O53 O 0.18268 0.53422 0.30507 0.0
O54 O 0.40825 0.78634 0.15935 0.0
O55 O 0.42373 0.75231 0.24037 0.0
O56 O 0.19122 0.52489 0.24991 0.0
O57 O 0.25863 0.54507 0.17255 0.0
C58 C 0.2034 0.49035 0.20899 0.0
O59 O 0.22556 0.75993 0.28936 0.0
O60 O 0.27454 0.79916 0.37236 0.0
C61 C 0.16885 0.71583 0.19015 0.0
C62 C 0.23661 0.80487 0.33218 0.0
Zn63 Zn 0.71305 0.33512 0.85784 0.0
Zn64 Zn 0.62951 0.28398 0.67795 0.0
Zn65 Zn 0.67372 0.30598 0.76532 0.0
C66 C 0.70029 0.46302 0.69483 0.0
C67 C 0.46452 0.15639 0.71352 0.0
O68 O 0.74383 0.24151 0.78351 0.0
O69 O 0.72176 0.23255 0.86993 0.0
C70 C 0.82183 0.51064 0.82378 0.0
O71 O 0.7367 0.44574 0.73204 0.0
O72 O 0.63102 0.39535 0.66852 0.0
O73 O 0.50517 0.15487 0.67329 0.0
O74 O 0.516 0.21384 0.7517 0.0
O75 O 0.83041 0.46969 0.86132 0.0
O76 O 0.76292 0.46 0.78614 0.0
O77 O 0.53853 0.23395 0.80534 0.0
O78 O 0.59477 0.31045 0.88142 0.0
C79 C 0.5253 0.25418 0.85141 0.0
O80 O 0.73867 0.24722 0.72703 0.0
O81 O 0.73851 0.29938 0.64823 0.0
C82 C 0.746 0.21135 0.82933 0.0
C83 C 0.76417 0.26235 0.67808 0.0
C84 C 0.11123 0.879 0.14969 0.0
C85 C 0.03723 0.81944 0.11352 0.0
H86 H 0.21048 0.89138 0.2047 0.0
C87 C -2e-05 0.72346 0.10935 0.0
H88 H 0.14021 0.9529 0.15427 0.0
C89 C 0.03868 0.68882 0.13819 0.0
C90 C 0.11577 0.74895 0.17202 0.0
H91 H 0.9424 0.67497 0.08241 0.0
H92 H 0.01092 0.61551 0.13206 0.0
C93 C 0.15024 0.84364 0.17909 0.0
C94 C 0.27312 0.17388 0.68605 0.0
C95 C 0.21977 0.09945 0.64926 0.0
H96 H 0.3912 0.24665 0.73925 0.0
C97 C 0.23034 0.02757 0.64745 0.0
H98 H 0.26568 0.2298 0.68833 0.0
C99 C 0.30377 0.03839 0.67563 0.0
C100 C 0.36552 0.11981 0.70693 0.0
H101 H 0.18998 0.96941 0.61941 0.0
H102 H 0.31884 0.98892 0.66826 0.0
C103 C 0.34446 0.18297 0.71556 0.0
C104 C 0.02459 0.2457 0.15471 0.0
C105 C 0.08095 0.21566 0.1507 0.0
H106 H 0.0204 0.35916 0.17813 0.0
C107 C 0.16746 0.26611 0.17848 0.0
H108 H 0.9578 0.20832 0.13366 0.0
C109 C 0.20341 0.35236 0.20304 0.0
C110 C 0.15217 0.38795 0.20159 0.0
H111 H 0.21199 0.24406 0.17657 0.0
H112 H 0.27463 0.39505 0.21923 0.0
C113 C 0.06035 0.3319 0.18005 0.0
C114 C 0.83271 0.16901 0.57131 0.0
C115 C 0.85846 0.12179 0.60061 0.0
H116 H 0.78723 0.25429 0.57294 0.0
C117 C 0.86458 0.1298 0.65604 0.0
H118 H 0.82937 0.16475 0.52845 0.0
C119 C 0.83799 0.17939 0.68222 0.0
C120 C 0.80785 0.22331 0.65284 0.0
H121 H 0.88532 0.0939 0.67904 0.0
H122 H 0.83812 0.1807 0.72504 0.0
C123 C 0.80919 0.22064 0.59707 0.0
C124 C 0.67827 0.91272 0.11377 0.0
C125 C 0.69674 0.84755 0.12139 0.0
H126 H 0.58649 0.94784 0.13329 0.0
C127 C 0.65413 0.78299 0.1637 0.0
H128 H 0.71155 0.96379 0.08164 0.0
C129 C 0.58592 0.77662 0.19456 0.0
C130 C 0.55744 0.83238 0.18199 0.0
H131 H 0.66916 0.73339 0.17071 0.0
H132 H 0.54781 0.72034 0.22381 0.0
C133 C 0.60768 0.90424 0.14354 0.0
C134 C 0.86546 0.71165 0.64251 0.0
C135 C 0.79987 0.72784 0.63005 0.0
H136 H 0.88432 0.61277 0.67508 0.0
C137 C 0.70624 0.66441 0.64888 0.0
H138 H 0.93835 0.76025 0.62922 0.0
C139 C 0.67561 0.58056 0.67376 0.0
C140 C 0.73867 0.5602 0.6817 0.0
H141 H 0.65429 0.67581 0.64116 0.0
H142 H 0.60136 0.52915 0.68418 0.0
C143 C 0.83488 0.62798 0.66881 0.0
C144 C 0.23985 0.00208 0.37766 0.0
C145 C 0.1487 0.95074 0.40016 0.0
H146 H 0.33845 -0.00549 0.33526 0.0
C147 C 0.08008 0.85451 0.38641 0.0
H148 H 0.29403 0.07695 0.38632 0.0
C149 C 0.10561 0.80816 0.35564 0.0
C150 C 0.19959 0.8577 0.33846 0.0
H151 H 0.00886 0.81359 0.40229 0.0
H152 H 0.05475 0.73174 0.35008 0.0
C153 C 0.26511 0.95573 0.34729 0.0
C154 C 0.27341 0.10349 0.89956 0.0
C155 C 0.26914 0.17555 0.91752 0.0
H156 H 0.3603 0.07266 0.86257 0.0
C157 C 0.34404 0.27128 0.90578 0.0
H158 H 0.21603 0.02916 0.90747 0.0
C159 C 0.42521 0.2954 0.88126 0.0
C160 C 0.43246 0.22442 0.86693 0.0
H161 H 0.34252 0.32872 0.91794 0.0
H162 H 0.4842 0.3701 0.87548 0.0
C163 C 0.35515 0.12806 0.87388 0.0
C164 C 0.09438 0.27391 0.37074 0.0
C165 C 0.07427 0.26261 0.425 0.0
H166 H 0.13326 0.36313 0.30403 0.0
C167 C 0.04536 0.3118 0.44893 0.0
H168 H 0.11689 0.23618 0.35175 0.0
C169 C 0.05369 0.3844 0.42106 0.0
C170 C 0.09275 0.40872 0.36972 0.0
H171 H 0.0294 0.3036 0.49088 0.0
H172 H 0.04244 0.42965 0.44222 0.0
C173 C 0.10349 0.34682 0.34313 0.0
C174 C 0.79041 0.05801 0.8955 0.0
C175 C 0.88705 0.12692 0.90728 0.0
H176 H 0.66804 0.03093 0.85847 0.0
C177 C 0.93932 0.21486 0.8809 0.0
H178 H 0.749 0.98917 0.91492 0.0
C179 C 0.89392 0.23654 0.84653 0.0
C180 C 0.79548 0.17156 0.83931 0.0
H181 H 0.01447 0.26824 0.88846 0.0
H182 H 0.93391 0.30788 0.83029 0.0
C183 C 0.74454 0.08082 0.8623 0.0
C184 C 0.72296 0.93876 0.38096 0.0
C185 C 0.74525 0.87619 0.38772 0.0
H186 H 0.61497 0.95174 0.35968 0.0
C187 C 0.68298 0.78318 0.36686 0.0
H188 H 0.76899 0.01042 0.39684 0.0
C189 C 0.59522 0.74989 0.34582 0.0
C190 C 0.56886 0.80936 0.34462 0.0
H191 H 0.69806 0.73314 0.37144 0.0
H192 H 0.54482 0.67543 0.33488 0.0
C193 C 0.63477 0.90515 0.35989 0.0
C194 C 0.95451 0.74999 0.8876 0.0
C195 C 0.88664 0.7656 0.88318 0.0
H196 H -0.01284 0.65493 0.87118 0.0
C197 C 0.81152 0.71064 0.84712 0.0
H198 H 0.01367 0.79172 0.91476 0.0
C199 C 0.7979 0.63379 0.82108 0.0
C200 C 0.8581 0.60986 0.83169 0.0
H201 H 0.7588 0.72188 0.84252 0.0
H202 H 0.73402 0.58688 0.79782 0.0
C203 C 0.93964 0.67182 0.86254 0.0
loop_
_geom_bond_atom_site_label_1
_geom_bond_atom_site_label_2
_geom_bond_distance
_geom_bond_site_symmetry_2
_ccdc_geom_bond_type
O0 Mg1 1.990 . S
O0 C14 1.253 1_455 S
Mg1 O0 1.990 . S
Mg1 O4 2.180 . S
Mg1 O5 2.117 . S
Mg1 O19 2.030 1_556 S
O2 Mg3 2.072 1_656 S
O2 C14 1.260 . S
Mg3 O2 2.072 1_454 S
Mg3 O4 2.099 1_554 S
Mg3 O6 2.079 1_545 S
Mg3 O7 2.072 1_444 S
Mg3 O9 2.099 1_445 S
Mg3 O20 2.079 . S
O4 Mg1 2.180 . S
O4 Mg3 2.099 1_556 S
O4 C15 1.279 . S
O5 Mg1 2.117 . S
O5 C15 1.250 . S
O6 Mg3 2.079 1_565 S
O6 C16 1.264 . S
O7 Mg3 2.072 1_666 S
O7 C17 1.260 . S
Mg8 O9 2.180 . S
Mg8 O10 2.030 . S
Mg8 O11 1.990 1_554 S
Mg8 O12 2.117 . S
O9 Mg3 2.099 1_665 S
O9 Mg8 2.180 . S
O9 C18 1.279 . S
O10 Mg8 2.030 . S
O10 C16 1.248 1_655 S
O11 Mg8 1.990 1_556 S
O11 C17 1.253 . S
O12 Mg8 2.117 . S
O12 C18 1.250 . S
C13 O19 1.248 . S
C13 O20 1.264 . S
C14 O0 1.253 1_655 S
C14 O2 1.260 . S
C15 O4 1.279 . S
C15 O5 1.250 . S
C16 O6 1.264 . S
C16 O10 1.248 1_455 S
C17 O7 1.260 . S
C17 O11 1.253 . S
C18 O9 1.279 . S
C18 O12 1.250 . S
O19 Mg1 2.030 1_554 S
O19 C13 1.248 . S
O20 Mg3 2.079 . S
O20 C13 1.264 . S
O21 Mg22 1.990 . S
O21 C35 1.253 1_565 S
Mg22 O21 1.990 . S
Mg22 O25 2.180 . S
Mg22 O26 2.117 . S
Mg22 O40 2.030 . S
O23 Mg24 2.076 1_545 S
O23 C35 1.260 . S
Mg24 O23 2.076 1_565 S
Mg24 O25 2.100 . S
Mg24 O27 2.075 1_655 S
Mg24 O28 2.069 1_665 S
Mg24 O30 2.098 1_665 S
Mg24 O41 2.082 . S
O25 Mg22 2.180 . S
O25 Mg24 2.100 . S
O25 C36 1.279 . S
O26 Mg22 2.117 . S
O26 C36 1.250 . S
O27 Mg24 2.075 1_455 S
O27 C37 1.264 . S
O28 Mg24 2.069 1_445 S
O28 C38 1.260 . S
Mg29 O30 2.180 . S
Mg29 O31 2.030 . S
Mg29 O32 1.990 . S
Mg29 O33 2.117 . S
O30 Mg24 2.098 1_445 S
O30 Mg29 2.180 . S
O30 C39 1.279 . S
O31 Mg29 2.030 . S
O31 C37 1.248 1_545 S
O32 Mg29 1.990 . S
O32 C38 1.253 . S
O33 Mg29 2.117 . S
O33 C39 1.250 . S
C34 O40 1.248 . S
C34 O41 1.264 . S
C35 O21 1.253 1_545 S
C35 O23 1.260 . S
C36 O25 1.279 . S
C36 O26 1.250 . S
C37 O27 1.264 . S
C37 O31 1.248 1_565 S
C38 O28 1.260 . S
C38 O32 1.253 . S
C39 O30 1.279 . S
C39 O33 1.250 . S
O40 Mg22 2.030 . S
O40 C34 1.248 . S
O41 Mg24 2.082 . S
O41 C34 1.264 . S
Zn42 O48 1.920 . S
Zn42 O54 1.898 . S
Zn42 O57 1.905 . S
Zn43 O51 1.905 . S
Zn43 O52 1.898 . S
Zn43 O60 1.920 . S
Zn44 O47 2.080 . S
Zn44 O50 2.114 . S
Zn44 O53 2.120 . S
Zn44 O55 2.120 . S
Zn44 O56 2.114 . S
Zn44 O59 2.080 . S
C45 O50 1.166 . S
C45 O51 1.182 . S
C46 O52 1.167 . S
C46 O53 1.299 . S
O47 Zn44 2.080 . S
O47 C61 1.305 . S
O48 Zn42 1.920 . S
O48 C61 1.234 . S
C49 O54 1.167 . S
C49 O55 1.299 . S
O50 Zn44 2.114 . S
O50 C45 1.166 . S
O51 Zn43 1.905 . S
O51 C45 1.182 . S
O52 Zn43 1.898 . S
O52 C46 1.167 . S
O53 Zn44 2.120 . S
O53 C46 1.299 . S
O54 Zn42 1.898 . S
O54 C49 1.167 . S
O55 Zn44 2.120 . S
O55 C49 1.299 . S
O56 Zn44 2.114 . S
O56 C58 1.166 . S
O57 Zn42 1.905 . S
O57 C58 1.182 . S
C58 O56 1.166 . S
C58 O57 1.182 . S
O59 Zn44 2.080 . S
O59 C62 1.305 . S
O60 Zn43 1.920 . S
O60 C62 1.234 . S
C61 O47 1.305 . S
C61 O48 1.234 . S
C62 O59 1.305 . S
C62 O60 1.234 . S
Zn63 O69 1.920 . S
Zn63 O75 1.898 . S
Zn63 O78 1.905 . S
Zn64 O72 1.905 . S
Zn64 O73 1.898 . S
Zn64 O81 1.920 . S
Zn65 O68 2.080 . S
Zn65 O71 2.114 . S
Zn65 O74 2.120 . S
Zn65 O76 2.120 . S
Zn65 O77 2.114 . S
Zn65 O80 2.080 . S
C66 O71 1.166 . S
C66 O72 1.182 . S
C67 O73 1.167 . S
C67 O74 1.299 . S
O68 Zn65 2.080 . S
O68 C82 1.305 . S
O69 Zn63 1.920 . S
O69 C82 1.234 . S
C70 O75 1.167 . S
C70 O76 1.299 . S
O71 Zn65 2.114 . S
O71 C66 1.166 . S
O72 Zn64 1.905 . S
O72 C66 1.182 . S
O73 Zn64 1.898 . S
O73 C67 1.167 . S
O74 Zn65 2.120 . S
O74 C67 1.299 . S
O75 Zn63 1.898 . S
O75 C70 1.167 . S
O76 Zn65 2.120 . S
O76 C70 1.299 . S
O77 Zn65 2.114 . S
O77 C79 1.166 . S
O78 Zn63 1.905 . S
O78 C79 1.182 . S
C79 O77 1.166 . S
C79 O78 1.182 . S
O80 Zn65 2.080 . S
O80 C83 1.305 . S
O81 Zn64 1.920 . S
O81 C83 1.234 . S
C82 O68 1.305 . S
C82 O69 1.234 . S
C83 O80 1.305 . S
C83 O81 1.234 . S
C84 C85 1.387 . S
C84 H88 0.950 . S
C84 C93 1.390 . S
C85 C84 1.387 . S
C85 C87 1.387 . S
H86 C93 0.950 . S
C87 C85 1.387 . S
C87 C89 1.390 . S
C87 H91 0.950 . S
H88 C84 0.950 . S
C89 C87 1.390 . S
C89 C90 1.387 . S
C89 H92 0.950 . S
C90 C89 1.387 . S
C90 C93 1.387 . S
H91 C87 0.950 . S
H92 C89 0.950 . S
C93 C84 1.390 . S
C93 H86 0.950 . S
C93 C90 1.387 . S
C94 C95 1.387 . S
C94 H98 0.950 . S
C94 C103 1.390 . S
C95 C94 1.387 . S
C95 C97 1.387 . S
H96 C103 0.950 . S
C97 C95 1.387 . S
C97 C99 1.390 . S
C97 H101 0.950 1_545 S
H98 C94 0.950 . S
C99 C97 1.390 . S
C99 C100 1.387 . S
C99 H102 0.950 . S
C100 C99 1.387 . S
C100 C103 1.387 . S
H101 C97 0.950 1_565 S
H102 C99 0.950 . S
C103 C94 1.390 . S
C103 H96 0.950 . S
C103 C100 1.387 . S
C104 C105 1.387 . S
C104 H108 0.950 . S
C104 C113 1.390 . S
C105 C104 1.387 . S
C105 C107 1.387 . S
H106 C113 0.950 . S
C107 C105 1.387 . S
C107 C109 1.390 . S
C107 H111 0.950 . S
H108 C104 0.950 . S
C109 C107 1.390 . S
C109 C110 1.387 . S
C109 H112 0.950 . S
C110 C109 1.387 . S
C110 C113 1.387 . S
H111 C107 0.950 . S
H112 C109 0.950 . S
C113 C104 1.390 . S
C113 H106 0.950 . S
C113 C110 1.387 . S
C114 C115 1.387 . S
C114 H118 0.950 . S
C114 C123 1.390 . S
C115 C114 1.387 . S
C115 C117 1.387 . S
H116 C123 0.950 . S
C117 C115 1.387 . S
C117 C119 1.390 . S
C117 H121 0.950 1_655 S
H118 C114 0.950 . S
C119 C117 1.390 . S
C119 C120 1.387 . S
C119 H122 0.950 . S
C120 C119 1.387 . S
C120 C123 1.387 . S
H121 C117 0.950 1_455 S
H122 C119 0.950 . S
C123 C114 1.390 . S
C123 H116 0.950 . S
C123 C120 1.387 . S
C124 C125 1.387 . S
C124 H128 0.950 1_565 S
C124 C133 1.390 . S
C125 C124 1.387 . S
C125 C127 1.387 . S
H126 C133 0.950 1_545 S
C127 C125 1.387 . S
C127 C129 1.390 . S
C127 H131 0.950 . S
H128 C124 0.950 1_545 S
C129 C127 1.390 . S
C129 C130 1.387 . S
C129 H132 0.950 . S
C130 C129 1.387 . S
C130 C133 1.387 . S
H131 C127 0.950 . S
H132 C129 0.950 . S
C133 C124 1.390 . S
C133 H126 0.950 1_565 S
C133 C130 1.387 . S
C134 C135 1.387 . S
C134 H138 0.950 . S
C134 C143 1.390 . S
C135 C134 1.387 . S
C135 C137 1.387 . S
H136 C143 0.950 . S
C137 C135 1.387 . S
C137 C139 1.390 . S
C137 H141 0.950 . S
H138 C134 0.950 . S
C139 C137 1.390 . S
C139 C140 1.387 . S
C139 H142 0.950 . S
C140 C139 1.387 . S
C140 C143 1.387 . S
H141 C137 0.950 . S
H142 C139 0.950 . S
C143 C134 1.390 . S
C143 H136 0.950 . S
C143 C140 1.387 . S
C144 C145 1.387 . S
C144 H148 0.950 1_565 S
C144 C153 1.390 . S
C145 C144 1.387 . S
C145 C147 1.387 . S
H146 C153 0.950 . S
C147 C145 1.387 . S
C147 C149 1.390 . S
C147 H151 0.950 . S
H148 C144 0.950 1_545 S
C149 C147 1.390 . S
C149 C150 1.387 . S
C149 H152 0.950 . S
C150 C149 1.387 . S
C150 C153 1.387 . S
H151 C147 0.950 . S
H152 C149 0.950 . S
C153 C144 1.390 . S
C153 H146 0.950 . S
C153 C150 1.387 . S
C154 C155 1.387 . S
C154 H158 0.950 . S
C154 C163 1.390 . S
C155 C154 1.387 . S
C155 C157 1.387 . S
H156 C163 0.950 . S
C157 C155 1.387 . S
C157 C159 1.390 . S
C157 H161 0.950 . S
H158 C154 0.950 . S
C159 C157 1.390 . S
C159 C160 1.387 . S
C159 H162 0.950 . S
C160 C159 1.387 . S
C160 C163 1.387 . S
H161 C157 0.950 . S
H162 C159 0.950 . S
C163 C154 1.390 . S
C163 H156 0.950 . S
C163 C160 1.387 . S
C164 C165 1.387 . S
C164 H168 0.950 . S
C164 C173 1.390 . S
C165 C164 1.387 . S
C165 C167 1.387 . S
H166 C173 0.950 . S
C167 C165 1.387 . S
C167 C169 1.390 . S
C167 H171 0.950 1_455 S
H168 C164 0.950 . S
C169 C167 1.390 . S
C169 C170 1.387 . S
C169 H172 0.950 . S
C170 C169 1.387 . S
C170 C173 1.387 . S
H171 C167 0.950 1_655 S
H172 C169 0.950 . S
C173 C164 1.390 . S
C173 H166 0.950 . S
C173 C170 1.387 . S
C174 C175 1.387 . S
C174 H178 0.950 1_545 S
C174 C183 1.390 . S
C175 C174 1.387 . S
C175 C177 1.387 . S
H176 C183 0.950 . S
C177 C175 1.387 . S
C177 C179 1.390 . S
C177 H181 0.950 . S
H178 C174 0.950 1_565 S
C179 C177 1.390 . S
C179 C180 1.387 . S
C179 H182 0.950 . S
C180 C179 1.387 . S
C180 C183 1.387 . S
H181 C177 0.950 . S
H182 C179 0.950 . S
C183 C174 1.390 . S
C183 H176 0.950 . S
C183 C180 1.387 . S
C184 C185 1.387 . S
C184 H188 0.950 . S
C184 C193 1.390 . S
C185 C184 1.387 . S
C185 C187 1.387 . S
H186 C193 0.950 . S
C187 C185 1.387 . S
C187 C189 1.390 . S
C187 H191 0.950 . S
H188 C184 0.950 . S
C189 C187 1.390 . S
C189 C190 1.387 . S
C189 H192 0.950 . S
C190 C189 1.387 . S
C190 C193 1.387 . S
H191 C187 0.950 . S
H192 C189 0.950 . S
C193 C184 1.390 . S
C193 H186 0.950 . S
C193 C190 1.387 . S
C194 C195 1.387 . S
C194 H198 0.950 . S
C194 C203 1.390 . S
C195 C194 1.387 . S
C195 C197 1.387 . S
H196 C203 0.950 . S
C197 C195 1.387 . S
C197 C199 1.390 . S
C197 H201 0.950 . S
H198 C194 0.950 . S
C199 C197 1.390 . S
C199 C200 1.387 . S
C199 H202 0.950 . S
C200 C199 1.387 . S
C200 C203 1.387 . S
H201 C197 0.950 . S
H202 C199 0.950 . S
C203 C194 1.390 . S
C203 H196 0.950 . S
C203 C200 1.387 . S
C85 C16 1.391 . S
C90 C61 1.315 . S
C95 C38 1.536 . S
C100 C67 1.407 . S
C105 C13 1.371 . S
C110 C58 1.294 . S
C115 C35 1.587 . S
C120 C83 1.435 . S
C125 C18 1.460 . S
C130 C49 1.401 . S
C140 C66 1.440 . S
C135 C36 1.275 . S
C145 C37 1.389 . S
C150 C62 1.312 . S
C160 C79 1.440 . S
C155 C15 1.275 . S
C170 C46 1.403 . S
C165 C39 1.464 . S
C180 C82 1.432 . S
C175 C14 1.585 . S
C190 C45 1.294 . S
C185 C34 1.373 . S
C200 C70 1.404 . S
C195 C17 1.537 . S
