# Generated by pormake.
# Topology nia, (6,6)-cn, num edge types: 1
# Building blocks:
#     Node 0, Type 0, BuildingBlock: BETFEN_clean_sbu_0, # of connection points: 6
#     Node 1, Type 0, BuildingBlock: BETFEN_clean_sbu_0, # of connection points: 6
#     Node 2, Type 1, BuildingBlock: MIDCAF_clean_sbu_0, # of connection points: 6
#     Node 3, Type 1, BuildingBlock: MIDCAF_clean_sbu_0, # of connection points: 6
#     Edge 4, Type (0, 1), None
#     Edge 5, Type (0, 1), None
#     Edge 6, Type (0, 1), None
#     Edge 7, Type (0, 1), None
#     Edge 8, Type (0, 1), None
#     Edge 9, Type (0, 1), None
#     Edge 10, Type (0, 1), None
#     Edge 11, Type (0, 1), None
#     Edge 12, Type (0, 1), None
#     Edge 13, Type (0, 1), None
#     Edge 14, Type (0, 1), None
#     Edge 15, Type (0, 1), None
# Relax obj value: 0.277
# Max RMSD: 0.329
# Mean RMSD: 0.244
data_MOF--net-nia--node1-BETFEN_clean_sbu_0--node2-MIDCAF_clean_sbu_0--edge1-none
_symmetry_space_group_name_H-M    P1
_symmetry_Int_Tables_number       1
_symmetry_cell_setting            triclinic
loop_
_symmetry_equiv_pos_as_xyz
'x, y, z'
_cell_length_a     16.023927
_cell_length_b     16.022232
_cell_length_c     16.174387
_cell_angle_alpha  89.299546
_cell_angle_beta   89.220867
_cell_angle_gamma 143.2992
loop_
_atom_site_label
_atom_site_type_symbol
_atom_site_fract_x
_atom_site_fract_y
_atom_site_fract_z
_atom_type_partial_charge
Pr0 Pr 0.93768 0.01146 0.97942 0.0
Pr1 Pr 0.03605 0.96517 0.11039 0.0
C2 C 0.82639 0.05134 0.89719 0.0
C3 C 0.78419 0.10557 0.90737 0.0
C4 C 0.87657 0.24441 0.88271 0.0
C5 C 0.83096 0.29062 0.88196 0.0
C6 C 0.69303 0.19927 0.90669 0.0
C7 C 0.60267 0.06309 0.93538 0.0
C8 C 0.64724 0.0159 0.93473 0.0
C9 C 0.1884 0.13431 0.93427 0.0
C10 C 0.10223 0.21057 0.14657 0.0
C11 C 0.14696 0.92497 0.19273 0.0
C12 C 0.1892 0.8708 0.18244 0.0
C13 C 0.09687 0.73197 0.20708 0.0
C14 C 0.14252 0.6858 0.20777 0.0
C15 C 0.28044 0.77719 0.18298 0.0
C16 C 0.37074 0.91336 0.15429 0.0
C17 C 0.32613 0.9605 0.15501 0.0
C18 C 0.78539 0.84272 0.15535 0.0
C19 C 0.87163 0.76617 0.94318 0.0
O20 O 0.7507 0.9335 0.93634 0.0
O21 O 0.96025 0.142 0.89446 0.0
O22 O 0.15383 0.13235 1.00587 0.0
O23 O 0.09524 0.07808 0.88084 0.0
O24 O 0.14162 0.16568 0.16414 0.0
O25 O 0.01545 0.15792 0.08692 0.0
O26 O 0.22281 0.043 0.15378 0.0
O27 O 0.0131 0.8343 0.19527 0.0
O28 O 0.81997 0.84419 0.08396 0.0
O29 O 0.87855 0.89909 0.20884 0.0
O30 O 0.83221 0.81103 0.92562 0.0
O31 O 0.95841 0.81883 1.00283 0.0
H32 H -0.01756 0.31583 0.86087 0.0
H33 H 0.90268 0.39695 0.86097 0.0
H34 H 0.4963 -0.00808 0.9559 0.0
H35 H 0.5734 0.90836 0.95394 0.0
H36 H -0.00899 0.66053 0.22897 0.0
H37 H 0.07085 0.57949 0.22876 0.0
H38 H 0.4771 -0.01546 0.13372 0.0
H39 H 0.39993 0.06803 0.1358 0.0
Pr40 Pr -0.03621 0.03751 0.61035 0.0
Pr41 Pr 0.01009 0.93927 0.47918 0.0
C42 C 0.92379 0.14871 0.69274 0.0
C43 C 0.86957 0.19088 0.68246 0.0
C44 C 0.7307 0.09847 0.70704 0.0
C45 C 0.68443 0.14402 0.70765 0.0
C46 C 0.77577 0.28191 0.68285 0.0
C47 C 0.912 0.37229 0.65423 0.0
C48 C 0.95924 0.32778 0.65503 0.0
C49 C 0.84099 0.78678 0.65533 0.0
C50 C 0.7647 0.87304 0.44324 0.0
C51 C 0.0504 0.82845 0.39668 0.0
C52 C 0.10456 0.78623 0.40706 0.0
C53 C 0.24343 0.87859 0.3825 0.0
C54 C 0.28965 0.833 0.38196 0.0
C55 C 0.19827 0.69512 0.40682 0.0
C56 C 0.06206 0.6048 0.43544 0.0
C57 C 0.01487 0.64935 0.43458 0.0
C58 C 0.13249 0.18994 0.43439 0.0
C59 C 0.20906 0.10361 0.64635 0.0
O60 O 0.04173 0.22445 0.65367 0.0
O61 O 0.83315 0.01484 0.69538 0.0
O62 O 0.84288 0.82132 0.58378 0.0
O63 O 0.89725 0.87998 0.7088 0.0
O64 O 0.8096 0.83367 0.42552 0.0
O65 O 0.81733 0.95977 0.50296 0.0
O66 O 0.93227 0.75255 0.43554 0.0
O67 O 0.14106 0.96232 0.39423 0.0
O68 O 0.13108 0.15539 0.50573 0.0
O69 O 0.07608 0.09673 0.38087 0.0
O70 O 0.16419 0.14301 0.66406 0.0
O71 O 0.15642 0.01687 0.58663 0.0
H72 H 0.65929 -0.00737 0.72894 0.0
H73 H 0.57807 0.0723 0.72859 0.0
H74 H -0.01684 0.47864 0.63367 0.0
H75 H 0.0668 0.40163 0.63586 0.0
H76 H 0.31486 -0.01558 0.36056 0.0
H77 H 0.39599 0.90467 0.36102 0.0
H78 H -0.00911 0.49846 0.45605 0.0
H79 H 0.90731 0.57554 0.45373 0.0
Zn80 Zn 0.39139 0.62996 0.14279 0.0
Zn81 Zn 0.34537 0.58407 0.44711 0.0
Zn82 Zn 0.37922 0.59616 0.29492 0.0
C83 C 0.62979 0.79125 0.41329 0.0
C84 C 0.21137 0.32999 0.41427 0.0
O85 O 0.31546 0.67348 0.25136 0.0
O86 O 0.38455 0.74419 0.11971 0.0
C87 C 0.64535 0.76385 0.17553 0.0
O88 O 0.58699 0.73606 0.34193 0.0
O89 O 0.54642 0.75599 0.46641 0.0
O90 O 0.2582 0.40645 0.47442 0.0
O91 O 0.23619 0.37682 0.3394 0.0
O92 O 0.5689 0.71695 0.11541 0.0
O93 O 0.59854 0.73914 0.25041 0.0
O94 O 0.23929 0.38834 0.24789 0.0
O95 O 0.21937 0.4289 0.12349 0.0
C96 C 0.18407 0.34552 0.17655 0.0
O97 O 0.30196 0.65999 0.33848 0.0
O98 O 0.2313 0.59114 0.47016 0.0
C99 C 0.32924 0.72975 0.18463 0.0
C100 C 0.24574 0.64634 0.40522 0.0
Zn101 Zn 0.58234 0.34676 0.94684 0.0
Zn102 Zn 0.62841 0.39271 0.6426 0.0
Zn103 Zn 0.59452 0.3806 0.79475 0.0
C104 C 0.76222 0.64677 0.67552 0.0
C105 C 0.34395 0.18538 0.67634 0.0
O106 O 0.6582 0.30318 0.8383 0.0
O107 O 0.58894 0.23233 0.96992 0.0
C108 C 0.78981 0.63125 0.91315 0.0
O109 O 0.7375 0.59999 0.75038 0.0
O110 O 0.71544 0.57029 0.61538 0.0
O111 O 0.42736 0.22065 0.62325 0.0
O112 O 0.38676 0.24067 0.74767 0.0
O113 O 0.75449 0.54782 0.9662 0.0
O114 O 0.73448 0.58841 0.84185 0.0
O115 O 0.37515 0.23767 0.83915 0.0
O116 O 0.40487 0.25993 0.97413 0.0
C117 C 0.32839 0.21306 0.91403 0.0
O118 O 0.67188 0.31685 0.7512 0.0
O119 O 0.74269 0.38588 0.61955 0.0
C120 C 0.6443 0.2468 0.90502 0.0
C121 C 0.72823 0.33063 0.68447 0.0
loop_
_geom_bond_atom_site_label_1
_geom_bond_atom_site_label_2
_geom_bond_distance
_geom_bond_site_symmetry_2
_ccdc_geom_bond_type
Pr0 C2 2.880 . S
Pr0 O20 2.562 . S
Pr0 O21 2.490 . S
Pr0 O22 2.695 1_655 S
Pr0 O23 2.512 1_655 S
Pr0 O25 2.437 1_656 S
Pr0 O28 2.436 1_546 S
Pr0 O30 2.438 1_545 S
Pr1 C11 2.880 . S
Pr1 O22 2.436 1_564 S
Pr1 O24 2.438 1_565 S
Pr1 O26 2.562 . S
Pr1 O27 2.490 . S
Pr1 O28 2.695 1_455 S
Pr1 O29 2.512 1_455 S
Pr1 O31 2.437 1_454 S
C2 Pr0 2.880 . S
C2 C3 1.491 . S
C2 O20 1.254 . S
C2 O21 1.225 . S
C3 C2 1.491 . S
C3 C4 1.392 . S
C3 C8 1.356 . S
C4 C3 1.392 . S
C4 C5 1.368 . S
C4 H32 0.929 . S
C5 C4 1.368 . S
C5 C6 1.386 . S
C5 H33 0.929 . S
C6 C5 1.386 . S
C6 C7 1.373 . S
C7 C6 1.373 . S
C7 C8 1.409 . S
C7 H34 0.931 . S
C8 C3 1.356 . S
C8 C7 1.409 . S
C8 H35 0.930 . S
C9 O22 1.270 . S
C9 O23 1.248 . S
C10 O24 1.267 . S
C10 O25 1.278 . S
C11 Pr1 2.880 . S
C11 C12 1.491 . S
C11 O26 1.254 . S
C11 O27 1.225 . S
C12 C11 1.491 . S
C12 C13 1.392 . S
C12 C17 1.356 . S
C13 C12 1.392 . S
C13 C14 1.368 . S
C13 H36 0.929 . S
C14 C13 1.368 . S
C14 C15 1.386 . S
C14 H37 0.929 . S
C15 C14 1.386 . S
C15 C16 1.373 . S
C16 C15 1.373 . S
C16 C17 1.409 . S
C16 H38 0.931 . S
C17 C12 1.356 . S
C17 C16 1.409 . S
C17 H39 0.930 . S
C18 O28 1.270 . S
C18 O29 1.248 . S
C19 O30 1.267 . S
C19 O31 1.278 . S
O20 Pr0 2.562 . S
O20 C2 1.254 . S
O21 Pr0 2.490 . S
O21 C2 1.225 . S
O22 Pr0 2.695 1_455 S
O22 Pr1 2.436 1_546 S
O22 C9 1.270 . S
O23 Pr0 2.512 1_455 S
O23 C9 1.248 . S
O24 Pr1 2.438 1_545 S
O24 C10 1.267 . S
O25 Pr0 2.437 1_454 S
O25 C10 1.278 . S
O26 Pr1 2.562 . S
O26 C11 1.254 . S
O27 Pr1 2.490 . S
O27 C11 1.225 . S
O28 Pr0 2.436 1_564 S
O28 Pr1 2.695 1_655 S
O28 C18 1.270 . S
O29 Pr1 2.512 1_655 S
O29 C18 1.248 . S
O30 Pr0 2.438 1_565 S
O30 C19 1.267 . S
O31 Pr1 2.437 1_656 S
O31 C19 1.278 . S
H32 C4 0.929 . S
H33 C5 0.929 . S
H34 C7 0.931 . S
H35 C8 0.930 . S
H36 C13 0.929 . S
H37 C14 0.929 . S
H38 C16 0.931 . S
H39 C17 0.930 . S
Pr40 C42 2.880 1_455 S
Pr40 O60 2.562 1_455 S
Pr40 O61 2.490 1_455 S
Pr40 O62 2.695 1_445 S
Pr40 O63 2.512 1_445 S
Pr40 O65 2.437 1_445 S
Pr40 O68 2.436 . S
Pr40 O70 2.438 . S
Pr41 C51 2.880 . S
Pr41 O62 2.436 1_455 S
Pr41 O64 2.438 1_455 S
Pr41 O66 2.562 . S
Pr41 O67 2.490 . S
Pr41 O68 2.695 1_565 S
Pr41 O69 2.512 1_565 S
Pr41 O71 2.437 1_565 S
C42 Pr40 2.880 1_655 S
C42 C43 1.491 . S
C42 O60 1.254 . S
C42 O61 1.225 . S
C43 C42 1.491 . S
C43 C44 1.392 . S
C43 C48 1.356 . S
C44 C43 1.392 . S
C44 C45 1.368 . S
C44 H72 0.929 . S
C45 C44 1.368 . S
C45 C46 1.386 . S
C45 H73 0.929 . S
C46 C45 1.386 . S
C46 C47 1.373 . S
C47 C46 1.373 . S
C47 C48 1.409 . S
C47 H74 0.931 . S
C48 C43 1.356 . S
C48 C47 1.409 . S
C48 H75 0.930 . S
C49 O62 1.270 . S
C49 O63 1.248 . S
C50 O64 1.267 . S
C50 O65 1.278 . S
C51 Pr41 2.880 . S
C51 C52 1.491 . S
C51 O66 1.254 . S
C51 O67 1.225 . S
C52 C51 1.491 . S
C52 C53 1.392 . S
C52 C57 1.356 . S
C53 C52 1.392 . S
C53 C54 1.368 . S
C53 H76 0.929 1_565 S
C54 C53 1.368 . S
C54 C55 1.386 . S
C54 H77 0.929 . S
C55 C54 1.386 . S
C55 C56 1.373 . S
C56 C55 1.373 . S
C56 C57 1.409 . S
C56 H78 0.931 . S
C57 C52 1.356 . S
C57 C56 1.409 . S
C57 H79 0.930 . S
C58 O68 1.270 . S
C58 O69 1.248 . S
C59 O70 1.267 . S
C59 O71 1.278 . S
O60 Pr40 2.562 1_655 S
O60 C42 1.254 . S
O61 Pr40 2.490 1_655 S
O61 C42 1.225 . S
O62 Pr40 2.695 1_665 S
O62 Pr41 2.436 1_655 S
O62 C49 1.270 . S
O63 Pr40 2.512 1_665 S
O63 C49 1.248 . S
O64 Pr41 2.438 1_655 S
O64 C50 1.267 . S
O65 Pr40 2.437 1_665 S
O65 C50 1.278 . S
O66 Pr41 2.562 . S
O66 C51 1.254 . S
O67 Pr41 2.490 . S
O67 C51 1.225 . S
O68 Pr40 2.436 . S
O68 Pr41 2.695 1_545 S
O68 C58 1.270 . S
O69 Pr41 2.512 1_545 S
O69 C58 1.248 . S
O70 Pr40 2.438 . S
O70 C59 1.267 . S
O71 Pr41 2.437 1_545 S
O71 C59 1.278 . S
H72 C44 0.929 . S
H73 C45 0.929 . S
H74 C47 0.931 . S
H75 C48 0.930 . S
H76 C53 0.929 1_545 S
H77 C54 0.929 . S
H78 C56 0.931 . S
H79 C57 0.930 . S
Zn80 O86 1.920 . S
Zn80 O92 1.898 . S
Zn80 O95 1.905 . S
Zn81 O89 1.905 . S
Zn81 O90 1.898 . S
Zn81 O98 1.920 . S
Zn82 O85 2.080 . S
Zn82 O88 2.114 . S
Zn82 O91 2.120 . S
Zn82 O93 2.120 . S
Zn82 O94 2.114 . S
Zn82 O97 2.080 . S
C83 O88 1.166 . S
C83 O89 1.182 . S
C84 O90 1.167 . S
C84 O91 1.299 . S
O85 Zn82 2.080 . S
O85 C99 1.305 . S
O86 Zn80 1.920 . S
O86 C99 1.234 . S
C87 O92 1.167 . S
C87 O93 1.299 . S
O88 Zn82 2.114 . S
O88 C83 1.166 . S
O89 Zn81 1.905 . S
O89 C83 1.182 . S
O90 Zn81 1.898 . S
O90 C84 1.167 . S
O91 Zn82 2.120 . S
O91 C84 1.299 . S
O92 Zn80 1.898 . S
O92 C87 1.167 . S
O93 Zn82 2.120 . S
O93 C87 1.299 . S
O94 Zn82 2.114 . S
O94 C96 1.166 . S
O95 Zn80 1.905 . S
O95 C96 1.182 . S
C96 O94 1.166 . S
C96 O95 1.182 . S
O97 Zn82 2.080 . S
O97 C100 1.305 . S
O98 Zn81 1.920 . S
O98 C100 1.234 . S
C99 O85 1.305 . S
C99 O86 1.234 . S
C100 O97 1.305 . S
C100 O98 1.234 . S
Zn101 O107 1.920 . S
Zn101 O113 1.898 . S
Zn101 O116 1.905 . S
Zn102 O110 1.905 . S
Zn102 O111 1.898 . S
Zn102 O119 1.920 . S
Zn103 O106 2.080 . S
Zn103 O109 2.114 . S
Zn103 O112 2.120 . S
Zn103 O114 2.120 . S
Zn103 O115 2.114 . S
Zn103 O118 2.080 . S
C104 O109 1.166 . S
C104 O110 1.182 . S
C105 O111 1.167 . S
C105 O112 1.299 . S
O106 Zn103 2.080 . S
O106 C120 1.305 . S
O107 Zn101 1.920 . S
O107 C120 1.234 . S
C108 O113 1.167 . S
C108 O114 1.299 . S
O109 Zn103 2.114 . S
O109 C104 1.166 . S
O110 Zn102 1.905 . S
O110 C104 1.182 . S
O111 Zn102 1.898 . S
O111 C105 1.167 . S
O112 Zn103 2.120 . S
O112 C105 1.299 . S
O113 Zn101 1.898 . S
O113 C108 1.167 . S
O114 Zn103 2.120 . S
O114 C108 1.299 . S
O115 Zn103 2.114 . S
O115 C117 1.166 . S
O116 Zn101 1.905 . S
O116 C117 1.182 . S
C117 O115 1.166 . S
C117 O116 1.182 . S
O118 Zn103 2.080 . S
O118 C121 1.305 . S
O119 Zn102 1.920 . S
O119 C121 1.234 . S
C120 O106 1.305 . S
C120 O107 1.234 . S
C121 O118 1.305 . S
C121 O119 1.234 . S
C15 C99 1.440 . S
C59 C105 1.256 . S
C10 C96 1.421 . S
C46 C121 2.270 . S
C18 C87 2.230 . S
C104 C49 2.113 . S
C55 C100 1.440 . S
C117 C9 2.113 . S
C84 C58 2.229 . S
C120 C6 2.270 . S
C83 C50 1.421 . S
C108 C19 1.256 . S
