# Generated by pormake.
# Topology bcu-b, (8,8)-cn, num edge types: 1
# Building blocks:
#     Node 0, Type 0, BuildingBlock: VETTIZ_charged_sbu_0, # of connection points: 8
#     Node 1, Type 1, BuildingBlock: TAGTUT_clean_sbu_3, # of connection points: 8
#     Edge 2, Type (0, 1), BuildingBlock: OJICUG_clean_linker_0, # of connection points: 2
#     Edge 3, Type (0, 1), BuildingBlock: OJICUG_clean_linker_0, # of connection points: 2
#     Edge 4, Type (0, 1), BuildingBlock: OJICUG_clean_linker_0, # of connection points: 2
#     Edge 5, Type (0, 1), BuildingBlock: OJICUG_clean_linker_0, # of connection points: 2
#     Edge 6, Type (0, 1), BuildingBlock: OJICUG_clean_linker_0, # of connection points: 2
#     Edge 7, Type (0, 1), BuildingBlock: OJICUG_clean_linker_0, # of connection points: 2
#     Edge 8, Type (0, 1), BuildingBlock: OJICUG_clean_linker_0, # of connection points: 2
#     Edge 9, Type (0, 1), BuildingBlock: OJICUG_clean_linker_0, # of connection points: 2
# Relax obj value: 0.018
# Max RMSD: 0.093
# Mean RMSD: 0.074
data_MOF--net-bcu-b--node1-VETTIZ_charged_sbu_0--node2-TAGTUT_clean_sbu_3--edge1-OJICUG_clean_linker_0
_symmetry_space_group_name_H-M    P1
_symmetry_Int_Tables_number       1
_symmetry_cell_setting            triclinic
loop_
_symmetry_equiv_pos_as_xyz
'x, y, z'
_cell_length_a     14.575897
_cell_length_b     14.15304
_cell_length_c     16.841088
_cell_angle_alpha  88.803589
_cell_angle_beta   91.657769
_cell_angle_gamma 104.40662
loop_
_atom_site_label
_atom_site_type_symbol
_atom_site_fract_x
_atom_site_fract_y
_atom_site_fract_z
_atom_type_partial_charge
Fe0 Fe 0.05579 0.84187 -0.01146 0.0
O1 O 0.07516 0.98369 -0.01812 0.0
Fe2 Fe 0.04537 0.04671 0.87396 0.0
Fe3 Fe 1.01492 0.05904 0.05445 0.0
O4 O 0.07613 0.98302 -0.02554 0.0
O5 O 0.98491 0.12324 0.94606 0.0
O6 O 0.98116 0.12229 0.95399 0.0
Fe7 Fe 1.01086 0.26644 0.94256 0.0
C8 C 0.88079 0.86648 0.0762 0.0
O9 O 0.13911 0.88067 0.08998 0.0
O10 O 0.06506 0.98649 0.1504 0.0
O11 O 0.12884 0.28539 0.87315 0.0
O12 O 0.174 0.14694 0.88135 0.0
O13 O 0.11308 0.95648 0.81154 0.0
O14 O 0.16329 0.86282 0.90932 0.0
O15 O 0.14267 0.16041 0.06404 0.0
O16 O 0.09232 0.29371 0.04597 0.0
C17 C 0.16381 0.89787 0.83781 0.0
O18 O 0.93872 0.23899 0.83566 0.0
O19 O 1.00567 0.12566 0.7778 0.0
O20 O 0.94375 0.82114 0.0632 0.0
O21 O 0.88856 0.95369 0.05119 0.0
C22 C 0.12623 0.93302 0.14941 0.0
C23 C 0.14798 0.24837 0.07985 0.0
C24 C 0.88975 0.20509 0.08756 0.0
O25 O 0.94089 0.14696 0.11572 0.0
O26 O 0.89842 0.24558 0.01728 0.0
C27 C 0.18679 0.23485 0.8572 0.0
O28 O 0.91772 0.94581 0.86052 0.0
O29 O 0.96303 0.80959 0.88985 0.0
C30 C 0.95969 0.19372 0.77507 0.0
C31 C 0.90878 0.85486 0.85215 0.0
C32 C 0.70552 0.67966 0.56927 0.0
C33 C 0.78468 0.3468 0.5204 0.0
C34 C 0.6525 0.34169 0.30145 0.0
Mg35 Mg 0.5272 0.76553 0.49399 0.0
Mg36 Mg 0.32231 0.60821 0.46735 0.0
O37 O 0.44995 0.64457 0.44293 0.0
Mg38 Mg 0.52888 0.55035 0.46364 0.0
O39 O 0.61655 0.46389 0.48271 0.0
Mg40 Mg 0.72972 0.53623 0.42303 0.0
Mg41 Mg 0.57535 0.32867 0.46875 0.0
C42 C 0.33726 0.42986 0.36347 0.0
O43 O 0.43662 0.4593 0.56234 0.0
O44 O 0.42471 0.84546 0.42391 0.0
O45 O 0.4537 0.30616 0.54695 0.0
O46 O 0.42825 0.75245 0.60042 0.0
O47 O 0.28638 0.73093 0.41212 0.0
O48 O 0.30308 0.62502 0.59003 0.0
O49 O 0.63018 0.62799 0.36668 0.0
O50 O 0.62073 0.78038 0.38599 0.0
C51 C 0.65185 0.71871 0.3472 0.0
C52 C 0.33703 0.81765 0.40084 0.0
O53 O 0.42829 0.44859 0.37233 0.0
O54 O 0.81036 0.43316 0.48952 0.0
O55 O 0.28644 0.47315 0.4035 0.0
O56 O 0.70218 0.42602 0.32132 0.0
O57 O 0.6986 0.29665 0.52021 0.0
O58 O 0.58852 0.29123 0.34628 0.0
O59 O 0.61593 0.66243 0.55478 0.0
O60 O 0.75772 0.64007 0.52797 0.0
C61 C 0.35102 0.69924 0.62733 0.0
C62 C 0.41752 0.36798 0.58208 0.0
C63 C 0.14851 0.32823 0.20871 0.0
C64 C 0.1979 0.28829 0.15377 0.0
H65 H 0.15157 0.39876 0.31894 0.0
C66 C 0.29161 0.28423 0.17207 0.0
H67 H 0.07529 0.3296 0.19711 0.0
C68 C 0.33718 0.32612 0.24233 0.0
C69 C 0.28834 0.3697 0.29609 0.0
H70 H 0.33037 0.25191 0.13091 0.0
H71 H 0.41093 0.32687 0.25333 0.0
C72 C 0.19246 0.36701 0.27923 0.0
C73 C 0.78284 0.17695 0.20633 0.0
C74 C 0.81879 0.23227 0.13874 0.0
H75 H 0.69648 0.1659 0.30894 0.0
C76 C 0.78636 0.31619 0.11957 0.0
H77 H 0.80609 0.11222 0.223 0.0
C78 C 0.72448 0.34717 0.16892 0.0
C79 C 0.69109 0.29382 0.23769 0.0
H80 H 0.81222 0.36108 0.06813 0.0
H81 H 0.70654 0.41574 0.15551 0.0
C82 C 0.71867 0.20682 0.25477 0.0
C83 C 0.76128 0.88246 0.17577 0.0
C84 C 0.81007 0.82376 0.13699 0.0
H85 H 0.67516 0.8963 0.27308 0.0
C86 C 0.80182 0.72752 0.16528 0.0
H87 H 0.76576 0.95653 0.15558 0.0
C88 C 0.74988 0.69261 0.23298 0.0
C89 C 0.70548 0.75333 0.27425 0.0
H90 H 0.83828 0.67996 0.13669 0.0
H91 H 0.7465 0.61901 0.25398 0.0
C92 C 0.71017 0.84796 0.24383 0.0
C93 C 0.28324 0.93711 0.21271 0.0
C94 C 0.18592 0.92951 0.22079 0.0
H95 H 0.41018 0.91211 0.26684 0.0
C96 C 0.14524 0.90677 0.29531 0.0
H97 H 0.31609 0.95558 0.15567 0.0
C98 C 0.19881 0.88082 0.35854 0.0
C99 C 0.29413 0.87996 0.34839 0.0
H100 H 0.07038 0.90064 0.30274 0.0
H101 H 0.16382 0.85383 0.41337 0.0
C102 C 0.33739 0.91373 0.27649 0.0
C103 C 0.31103 0.85978 0.79225 0.0
C104 C 0.2139 0.85343 0.78116 0.0
H105 H 0.43168 0.81471 0.75176 0.0
C106 C 0.16125 0.78981 0.72458 0.0
H107 H 0.35201 0.90666 0.83745 0.0
C108 C 0.20526 0.73364 0.67894 0.0
C109 C 0.30323 0.74189 0.68788 0.0
H110 H 0.08557 0.78172 0.71713 0.0
H111 H 0.16311 0.68674 0.63431 0.0
C112 C 0.3559 0.80583 0.74473 0.0
C113 C 0.27008 0.36841 0.76491 0.0
C114 C 0.25526 0.27152 0.79305 0.0
H115 H 0.33156 0.47441 0.67677 0.0
C116 C 0.29506 0.20692 0.75138 0.0
H117 H 0.24007 0.42018 0.79503 0.0
C118 C 0.34597 0.23768 0.68228 0.0
C119 C 0.35907 0.33408 0.65318 0.0
H120 H 0.28422 0.13145 0.77046 0.0
H121 H 0.37486 0.18549 0.65163 0.0
C122 C 0.32154 0.3993 0.69619 0.0
C123 C 0.95903 0.33086 0.68263 0.0
C124 C 0.93532 0.22976 0.69749 0.0
H125 H 0.93153 0.44805 0.61137 0.0
C126 C 0.87858 0.16673 0.64276 0.0
H127 H 1.00423 0.38031 0.72407 0.0
C128 C 0.83659 0.20547 0.57859 0.0
C129 C 0.85232 0.30727 0.56843 0.0
H130 H 0.86027 0.08854 0.65328 0.0
H131 H 0.78613 0.15613 0.54058 0.0
C132 C 0.91846 0.36952 0.61784 0.0
C133 C 0.78008 0.84891 0.74603 0.0
C134 C 0.84516 0.80455 0.78656 0.0
H135 H 0.68296 0.84374 0.64595 0.0
C136 C 0.85692 0.716 0.75781 0.0
H137 H 0.76931 0.91738 0.76632 0.0
C138 C 0.80944 0.67574 0.68854 0.0
C139 C 0.74726 0.72154 0.64633 0.0
H140 H 0.90627 0.67961 0.78673 0.0
H141 H 0.82277 0.6088 0.66714 0.0
C142 C 0.73066 0.8071 0.67703 0.0
loop_
_geom_bond_atom_site_label_1
_geom_bond_atom_site_label_2
_geom_bond_distance
_geom_bond_site_symmetry_2
_ccdc_geom_bond_type
Fe0 O1 1.891 . S
Fe0 O4 1.709 1_554 S
Fe0 O9 2.083 1_655 S
Fe0 O14 1.931 1_654 S
Fe0 O20 2.082 . S
Fe0 O29 1.931 1_554 S
O1 Fe0 1.891 . S
O1 Fe3 1.715 1_665 S
Fe2 O4 1.886 1_445 S
Fe2 O5 1.715 . S
Fe2 O12 1.935 . S
Fe2 O13 2.077 1_545 S
Fe2 O19 1.935 1_455 S
Fe2 O28 2.077 1_445 S
Fe3 O1 1.715 1_445 S
Fe3 O6 1.886 . S
Fe3 O10 1.935 1_545 S
Fe3 O15 2.077 . S
Fe3 O21 1.935 1_445 S
Fe3 O25 2.077 1_455 S
O4 Fe0 1.709 1_556 S
O4 Fe2 1.886 1_665 S
O5 Fe2 1.715 . S
O5 Fe7 1.885 . S
O6 Fe3 1.886 . S
O6 Fe7 1.716 1_554 S
Fe7 O5 1.885 . S
Fe7 O6 1.716 1_556 S
Fe7 O11 2.076 . S
Fe7 O16 1.936 1_556 S
Fe7 O18 2.076 1_455 S
Fe7 O26 1.936 1_456 S
C8 O20 1.381 . S
C8 O21 1.421 . S
O9 Fe0 2.083 1_455 S
O9 C22 1.381 . S
O10 Fe3 1.935 1_565 S
O10 C22 1.421 . S
O11 Fe7 2.076 . S
O11 C27 1.381 . S
O12 Fe2 1.935 . S
O12 C27 1.421 . S
O13 Fe2 2.077 1_565 S
O13 C17 1.381 . S
O14 Fe0 1.931 1_456 S
O14 C17 1.421 . S
O15 Fe3 2.077 . S
O15 C23 1.381 . S
O16 Fe7 1.936 1_554 S
O16 C23 1.421 . S
C17 O13 1.381 . S
C17 O14 1.421 . S
O18 Fe7 2.076 1_655 S
O18 C30 1.381 . S
O19 Fe2 1.935 1_655 S
O19 C30 1.421 . S
O20 Fe0 2.082 . S
O20 C8 1.381 . S
O21 Fe3 1.935 1_665 S
O21 C8 1.421 . S
C22 O9 1.381 . S
C22 O10 1.421 . S
C23 O15 1.381 . S
C23 O16 1.421 . S
C24 O25 1.381 . S
C24 O26 1.421 . S
O25 Fe3 2.077 1_655 S
O25 C24 1.381 . S
O26 Fe7 1.936 1_654 S
O26 C24 1.421 . S
C27 O11 1.381 . S
C27 O12 1.421 . S
O28 Fe2 2.077 1_665 S
O28 C31 1.381 . S
O29 Fe0 1.931 1_556 S
O29 C31 1.421 . S
C30 O18 1.381 . S
C30 O19 1.421 . S
C31 O28 1.381 . S
C31 O29 1.421 . S
C32 O59 1.312 . S
C32 O60 1.208 . S
C33 O54 1.331 . S
C33 O57 1.244 . S
C34 O56 1.264 . S
C34 O58 1.273 . S
Mg35 O37 1.936 . S
Mg35 O44 2.081 . S
Mg35 O46 2.023 . S
Mg35 O50 2.031 . S
Mg35 O59 2.291 . S
Mg36 O37 1.963 . S
Mg36 O47 1.942 . S
Mg36 O48 1.955 . S
Mg36 O55 1.986 . S
O37 Mg35 1.936 . S
O37 Mg36 1.963 . S
O37 Mg38 1.915 . S
Mg38 O37 1.915 . S
Mg38 O39 1.915 . S
Mg38 O43 2.013 . S
Mg38 O49 2.114 . S
Mg38 O53 2.013 . S
Mg38 O59 2.114 . S
O39 Mg38 1.915 . S
O39 Mg40 1.936 . S
O39 Mg41 1.963 . S
Mg40 O39 1.936 . S
Mg40 O49 2.291 . S
Mg40 O54 2.081 . S
Mg40 O56 2.023 . S
Mg40 O60 2.031 . S
Mg41 O39 1.963 . S
Mg41 O45 1.986 . S
Mg41 O57 1.942 . S
Mg41 O58 1.955 . S
C42 O53 1.191 . S
C42 O55 1.307 . S
O43 Mg38 2.013 . S
O43 C62 1.191 . S
O44 Mg35 2.081 . S
O44 C52 1.331 . S
O45 Mg41 1.986 . S
O45 C62 1.307 . S
O46 Mg35 2.023 . S
O46 C61 1.264 . S
O47 Mg36 1.942 . S
O47 C52 1.244 . S
O48 Mg36 1.955 . S
O48 C61 1.273 . S
O49 Mg38 2.114 . S
O49 Mg40 2.291 . S
O49 C51 1.312 . S
O50 Mg35 2.031 . S
O50 C51 1.208 . S
C51 O49 1.312 . S
C51 O50 1.208 . S
C52 O44 1.331 . S
C52 O47 1.244 . S
O53 Mg38 2.013 . S
O53 C42 1.191 . S
O54 C33 1.331 . S
O54 Mg40 2.081 . S
O55 Mg36 1.986 . S
O55 C42 1.307 . S
O56 C34 1.264 . S
O56 Mg40 2.023 . S
O57 C33 1.244 . S
O57 Mg41 1.942 . S
O58 C34 1.273 . S
O58 Mg41 1.955 . S
O59 C32 1.312 . S
O59 Mg35 2.291 . S
O59 Mg38 2.114 . S
O60 C32 1.208 . S
O60 Mg40 2.031 . S
C61 O46 1.264 . S
C61 O48 1.273 . S
C62 O43 1.191 . S
C62 O45 1.307 . S
C63 C64 1.387 . S
C63 H67 0.950 . S
C63 C72 1.390 . S
C64 C63 1.387 . S
C64 C66 1.387 . S
H65 C72 0.950 . S
C66 C64 1.387 . S
C66 C68 1.390 . S
C66 H70 0.950 . S
H67 C63 0.950 . S
C68 C66 1.390 . S
C68 C69 1.387 . S
C68 H71 0.950 . S
C69 C68 1.387 . S
C69 C72 1.387 . S
H70 C66 0.950 . S
H71 C68 0.950 . S
C72 C63 1.390 . S
C72 H65 0.950 . S
C72 C69 1.387 . S
C73 C74 1.387 . S
C73 H77 0.950 . S
C73 C82 1.390 . S
C74 C73 1.387 . S
C74 C76 1.387 . S
H75 C82 0.950 . S
C76 C74 1.387 . S
C76 C78 1.390 . S
C76 H80 0.950 . S
H77 C73 0.950 . S
C78 C76 1.390 . S
C78 C79 1.387 . S
C78 H81 0.950 . S
C79 C78 1.387 . S
C79 C82 1.387 . S
H80 C76 0.950 . S
H81 C78 0.950 . S
C82 C73 1.390 . S
C82 H75 0.950 . S
C82 C79 1.387 . S
C83 C84 1.387 . S
C83 H87 0.950 . S
C83 C92 1.390 . S
C84 C83 1.387 . S
C84 C86 1.387 . S
H85 C92 0.950 . S
C86 C84 1.387 . S
C86 C88 1.390 . S
C86 H90 0.950 . S
H87 C83 0.950 . S
C88 C86 1.390 . S
C88 C89 1.387 . S
C88 H91 0.950 . S
C89 C88 1.387 . S
C89 C92 1.387 . S
H90 C86 0.950 . S
H91 C88 0.950 . S
C92 C83 1.390 . S
C92 H85 0.950 . S
C92 C89 1.387 . S
C93 C94 1.387 . S
C93 H97 0.950 . S
C93 C102 1.390 . S
C94 C93 1.387 . S
C94 C96 1.387 . S
H95 C102 0.950 . S
C96 C94 1.387 . S
C96 C98 1.390 . S
C96 H100 0.950 . S
H97 C93 0.950 . S
C98 C96 1.390 . S
C98 C99 1.387 . S
C98 H101 0.950 . S
C99 C98 1.387 . S
C99 C102 1.387 . S
H100 C96 0.950 . S
H101 C98 0.950 . S
C102 C93 1.390 . S
C102 H95 0.950 . S
C102 C99 1.387 . S
C103 C104 1.387 . S
C103 H107 0.950 . S
C103 C112 1.390 . S
C104 C103 1.387 . S
C104 C106 1.387 . S
H105 C112 0.950 . S
C106 C104 1.387 . S
C106 C108 1.390 . S
C106 H110 0.950 . S
H107 C103 0.950 . S
C108 C106 1.390 . S
C108 C109 1.387 . S
C108 H111 0.950 . S
C109 C108 1.387 . S
C109 C112 1.387 . S
H110 C106 0.950 . S
H111 C108 0.950 . S
C112 C103 1.390 . S
C112 H105 0.950 . S
C112 C109 1.387 . S
C113 C114 1.387 . S
C113 H117 0.950 . S
C113 C122 1.390 . S
C114 C113 1.387 . S
C114 C116 1.387 . S
H115 C122 0.950 . S
C116 C114 1.387 . S
C116 C118 1.390 . S
C116 H120 0.950 . S
H117 C113 0.950 . S
C118 C116 1.390 . S
C118 C119 1.387 . S
C118 H121 0.950 . S
C119 C118 1.387 . S
C119 C122 1.387 . S
H120 C116 0.950 . S
H121 C118 0.950 . S
C122 C113 1.390 . S
C122 H115 0.950 . S
C122 C119 1.387 . S
C123 C124 1.387 . S
C123 H127 0.950 . S
C123 C132 1.390 . S
C124 C123 1.387 . S
C124 C126 1.387 . S
H125 C132 0.950 . S
C126 C124 1.387 . S
C126 C128 1.390 . S
C126 H130 0.950 . S
H127 C123 0.950 . S
C128 C126 1.390 . S
C128 C129 1.387 . S
C128 H131 0.950 . S
C129 C128 1.387 . S
C129 C132 1.387 . S
H130 C126 0.950 . S
H131 C128 0.950 . S
C132 C123 1.390 . S
C132 H125 0.950 . S
C132 C129 1.387 . S
C133 C134 1.387 . S
C133 H137 0.950 . S
C133 C142 1.390 . S
C134 C133 1.387 . S
C134 C136 1.387 . S
H135 C142 0.950 . S
C136 C134 1.387 . S
C136 C138 1.390 . S
C136 H140 0.950 . S
H137 C133 0.950 . S
C138 C136 1.390 . S
C138 C139 1.387 . S
C138 H141 0.950 . S
C139 C138 1.387 . S
C139 C142 1.387 . S
H140 C136 0.950 . S
H141 C138 0.950 . S
C142 C133 1.390 . S
C142 H135 0.950 . S
C142 C139 1.387 . S
C64 C23 1.382 . S
C69 C42 1.389 . S
C74 C24 1.548 . S
C79 C34 1.547 . S
C84 C8 1.416 . S
C89 C51 1.412 . S
C94 C22 1.477 . S
C99 C52 1.486 . S
C104 C17 1.528 . S
C109 C61 1.548 . S
C119 C62 1.389 . S
C114 C27 1.373 . S
C124 C30 1.456 . S
C129 C33 1.486 . S
C139 C32 1.409 . S
C134 C31 1.435 . S
