# Generated by pormake.
# Topology scu, (8,4)-cn, num edge types: 1
# Building blocks:
#     Node 0, Type 0, BuildingBlock: TAGTUT_clean_sbu_3, # of connection points: 8
#     Node 1, Type 1, BuildingBlock: ESEHIV_clean_sbu_0, # of connection points: 4
#     Node 2, Type 1, BuildingBlock: ESEHIV_clean_sbu_0, # of connection points: 4
#     Edge 3, Type (0, 1), BuildingBlock: AJUNOK_clean_linker_0, # of connection points: 2
#     Edge 4, Type (0, 1), BuildingBlock: AJUNOK_clean_linker_0, # of connection points: 2
#     Edge 5, Type (0, 1), BuildingBlock: AJUNOK_clean_linker_0, # of connection points: 2
#     Edge 6, Type (0, 1), BuildingBlock: AJUNOK_clean_linker_0, # of connection points: 2
#     Edge 7, Type (0, 1), BuildingBlock: AJUNOK_clean_linker_0, # of connection points: 2
#     Edge 8, Type (0, 1), BuildingBlock: AJUNOK_clean_linker_0, # of connection points: 2
#     Edge 9, Type (0, 1), BuildingBlock: AJUNOK_clean_linker_0, # of connection points: 2
#     Edge 10, Type (0, 1), BuildingBlock: AJUNOK_clean_linker_0, # of connection points: 2
# Relax obj value: 0.025
# Max RMSD: 0.111
# Mean RMSD: 0.105
data_MOF--net-scu--node1-TAGTUT_clean_sbu_3--node2-ESEHIV_clean_sbu_0--edge1-AJUNOK_clean_linker_0
_symmetry_space_group_name_H-M    P1
_symmetry_Int_Tables_number       1
_symmetry_cell_setting            triclinic
loop_
_symmetry_equiv_pos_as_xyz
'x, y, z'
_cell_length_a     22.334079
_cell_length_b     18.080653
_cell_length_c     15.502467
_cell_angle_alpha  94.46936
_cell_angle_beta   95.702881
_cell_angle_gamma 90.28691
loop_
_atom_site_label
_atom_site_type_symbol
_atom_site_fract_x
_atom_site_fract_y
_atom_site_fract_z
_atom_type_partial_charge
C0 C 1.00115 0.887 0.10783 0.0
C1 C 0.78195 0.98416 0.09034 0.0
C2 C 0.81515 0.05807 0.84073 0.0
Mg3 Mg 0.11713 0.93569 0.02357 0.0
Mg4 Mg 0.14964 0.10874 0.99824 0.0
O5 O 0.09215 0.03265 0.97594 0.0
Mg6 Mg 1.00576 0.03971 0.00488 0.0
O7 O 0.9193 0.03126 0.03233 0.0
Mg8 Mg 0.8921 0.93478 0.96475 0.0
Mg9 Mg 0.86235 0.10629 0.02681 0.0
C10 C 0.03616 0.18887 0.90413 0.0
O11 O 0.01606 0.14049 0.11207 0.0
O12 O 0.20199 0.93787 0.9476 0.0
O13 O 0.92289 0.19055 0.09108 0.0
O14 O 0.17259 0.99437 0.14348 0.0
O15 O 0.21923 0.05755 0.9277 0.0
O16 O 0.18376 0.11585 0.13359 0.0
O17 O 0.97924 0.94845 0.89773 0.0
O18 O 0.06125 0.87891 0.90211 0.0
C19 C 1.00856 0.89381 0.86802 0.0
C20 C 0.23257 0.98876 0.91771 0.0
O21 O 0.9974 0.13725 0.91375 0.0
O22 O 0.80849 0.93454 0.04432 0.0
O23 O 0.09109 0.18897 0.9383 0.0
O24 O 0.83615 0.99463 0.858 0.0
O25 O 0.79707 0.053 0.09546 0.0
O26 O 0.8234 0.11431 0.8955 0.0
O27 O 0.02999 0.94509 0.0931 0.0
O28 O 0.9482 0.87318 0.07023 0.0
C29 C 0.1925 0.05821 0.17545 0.0
C30 C 0.97814 0.1938 0.12345 0.0
Cu31 Cu 0.99432 0.56619 0.48733 0.0
N32 N 0.98733 0.51139 0.58489 0.0
N33 N 0.98314 0.42705 0.68236 0.0
C34 C 0.01735 0.45746 0.62637 0.0
C35 C 0.93115 0.46406 0.67801 0.0
C36 C 0.93362 0.51473 0.61777 0.0
O37 O 0.9712 0.4967 0.38675 0.0
C38 C 0.97566 0.68319 0.59016 0.0
O39 O 0.02771 0.65593 0.61859 0.0
H40 H 0.06148 0.43805 0.61294 0.0
H41 H 0.89695 0.5497 0.596 0.0
N42 N 0.06441 0.61339 0.45799 0.0
N43 N 0.09454 0.69054 0.36312 0.0
C44 C 0.05528 0.67813 0.42094 0.0
C45 C 0.1131 0.58451 0.42333 0.0
C46 C 0.13129 0.63167 0.36427 0.0
C47 C 1.00673 0.4414 0.38418 0.0
O48 O 0.04952 0.4374 0.44785 0.0
H49 H 0.01407 0.70899 0.42386 0.0
H50 H 0.12929 0.52894 0.43034 0.0
O51 O 0.94648 0.65193 0.52155 0.0
H52 H 0.89338 0.45387 0.71437 0.0
H53 H 0.16386 0.61906 0.31816 0.0
Cu54 Cu 0.5038 0.98623 0.50035 0.0
N55 N 0.47349 0.93222 0.58465 0.0
N56 N 0.41912 0.91526 0.69501 0.0
C57 C 0.43684 0.96345 0.64034 0.0
C58 C 0.44533 0.85046 0.67249 0.0
C59 C 0.47956 0.8613 0.60464 0.0
O60 O 0.4368 0.04244 0.44935 0.0
C61 C 0.61855 0.00502 0.57724 0.0
O62 O 0.61599 0.93375 0.55286 0.0
H63 H 0.42191 0.02022 0.63862 0.0
H64 H 0.5065 0.82038 0.5723 0.0
N65 N 0.53375 0.92988 0.40832 0.0
N66 N 0.59479 0.91031 0.30304 0.0
C67 C 0.56932 0.96101 0.35597 0.0
C68 C 0.53534 0.85638 0.38688 0.0
C69 C 0.57324 0.84409 0.32186 0.0
C70 C 0.38948 1.00313 0.42626 0.0
O71 O 0.39094 0.93216 0.43911 0.0
H72 H 0.5786 0.02006 0.36007 0.0
H73 H 0.51339 0.81451 0.41912 0.0
O74 O 0.57187 0.04381 0.56034 0.0
H75 H 0.44017 0.79921 0.7029 0.0
H76 H 0.58679 0.79045 0.29502 0.0
C77 C 0.02876 0.2548 0.26175 0.0
C78 C 0.99477 0.26083 0.18178 0.0
C79 C 0.0325 0.31406 0.32608 0.0
C80 C 1.00239 0.38149 0.31287 0.0
H81 H 0.04976 0.20279 0.27661 0.0
H82 H 0.0578 0.30583 0.38783 0.0
S83 S 0.91555 0.42878 0.10882 0.0
N84 N 0.93625 0.34211 0.0885 0.0
N85 N 0.94319 0.45313 0.20989 0.0
C86 C 0.97118 0.38958 0.23127 0.0
C87 C 0.96759 0.32942 0.16558 0.0
C88 C 0.72641 1.00383 0.22145 0.0
C89 C 0.73427 0.96169 0.14342 0.0
C90 C 0.68168 0.98569 0.27338 0.0
C91 C 0.64199 0.92518 0.24915 0.0
H92 H 0.75557 0.05107 0.24337 0.0
H93 H 0.67862 0.01934 0.33358 0.0
S94 S 0.64252 0.79788 0.04954 0.0
N95 N 0.69884 0.85637 0.04402 0.0
N96 N 0.61314 0.82346 0.14075 0.0
C97 C 0.64944 0.88209 0.17141 0.0
C98 C 0.69585 0.9001 0.11877 0.0
C99 C 0.07372 0.85862 0.23575 0.0
C100 C 0.03031 0.83358 0.16706 0.0
C101 C 0.09751 0.81058 0.29753 0.0
C102 C 0.07997 0.73551 0.29141 0.0
H103 H 0.08734 0.91651 0.24421 0.0
H104 H 0.12809 0.8327 0.35213 0.0
S105 S 0.97225 0.64023 0.12109 0.0
N106 N 0.97378 0.72695 0.09471 0.0
N107 N 0.01933 0.63735 0.20991 0.0
C108 C 0.03894 0.70903 0.22119 0.0
C109 C 0.01397 0.75782 0.15922 0.0
C110 C 0.23247 1.00431 0.31191 0.0
C111 C 0.23542 0.06079 0.25507 0.0
C112 C 0.28115 0.99035 0.37208 0.0
C113 C 0.33504 0.03202 0.37782 0.0
H114 H 0.1937 0.96733 0.30607 0.0
H115 H 0.27763 0.9435 0.41091 0.0
S116 S 0.36251 0.19375 0.25338 0.0
N117 N 0.29386 0.1649 0.21583 0.0
N118 N 0.3857 0.13823 0.32928 0.0
C119 C 0.33661 0.09325 0.32747 0.0
C120 C 0.28666 0.10777 0.266 0.0
C121 C 0.99461 0.86605 0.70795 0.0
C122 C 0.98206 0.84836 0.79096 0.0
C123 C 0.98084 0.81563 0.63507 0.0
C124 C 0.95436 0.74618 0.64342 0.0
H125 H 0.01933 0.91648 0.70044 0.0
H126 H 0.99764 0.82729 0.57423 0.0
S127 S 0.90416 0.67969 0.84499 0.0
N128 N 0.93472 0.7621 0.87606 0.0
N129 N 0.90909 0.66698 0.73921 0.0
C130 C 0.93566 0.73197 0.72457 0.0
C131 C 0.9499 0.78303 0.79872 0.0
C132 C 0.28533 0.89737 0.82173 0.0
C133 C 0.28413 0.96756 0.86794 0.0
C134 C 0.33105 0.87911 0.76796 0.0
C135 C 0.37718 0.9303 0.75886 0.0
H136 H 0.24949 0.85728 0.82445 0.0
H137 H 0.32891 0.82592 0.73045 0.0
S138 S 0.40044 0.11618 0.87698 0.0
N139 N 0.33714 0.08499 0.90839 0.0
N140 N 0.42306 0.05009 0.8085 0.0
C141 C 0.37844 0.99874 0.80862 0.0
C142 C 0.33193 0.01753 0.86283 0.0
C143 C 0.06304 0.30589 0.83996 0.0
C144 C 0.01989 0.24969 0.84728 0.0
C145 C 0.05154 0.36215 0.78382 0.0
C146 C 0.99627 0.36519 0.73348 0.0
H147 H 0.10652 0.30683 0.87784 0.0
H148 H 0.08548 0.40471 0.78132 0.0
S149 S 0.86882 0.23106 0.72366 0.0
N150 N 0.92003 0.20018 0.79598 0.0
N151 N 0.89851 0.30641 0.69055 0.0
C152 C 0.95277 0.30948 0.73896 0.0
C153 C 0.96449 0.25176 0.79592 0.0
C154 C 0.77522 0.00712 0.69244 0.0
C155 C 0.7723 0.06154 0.76165 0.0
C156 C 0.72677 0.99401 0.62859 0.0
C157 C 0.6732 0.03449 0.6314 0.0
H158 H 0.81373 0.971 0.69056 0.0
H159 H 0.73006 0.9485 0.57957 0.0
S160 S 0.64639 0.19166 0.79054 0.0
N161 N 0.71459 0.16323 0.82266 0.0
N162 N 0.62313 0.13793 0.70238 0.0
C163 C 0.67185 0.09407 0.69502 0.0
C164 C 0.72157 0.10777 0.76026 0.0
loop_
_geom_bond_atom_site_label_1
_geom_bond_atom_site_label_2
_geom_bond_distance
_geom_bond_site_symmetry_2
_ccdc_geom_bond_type
C0 O27 1.312 1_655 S
C0 O28 1.208 . S
C1 O22 1.331 1_545 S
C1 O25 1.244 . S
C2 O24 1.264 1_545 S
C2 O26 1.273 . S
Mg3 O5 1.936 1_564 S
Mg3 O12 2.081 1_554 S
Mg3 O14 2.023 . S
Mg3 O18 2.031 1_554 S
Mg3 O27 2.291 . S
Mg4 O5 1.963 . S
Mg4 O15 1.942 . S
Mg4 O16 1.955 1_556 S
Mg4 O23 1.986 . S
O5 Mg3 1.936 1_546 S
O5 Mg4 1.963 . S
O5 Mg6 1.915 1_556 S
Mg6 O5 1.915 1_554 S
Mg6 O7 1.915 1_455 S
Mg6 O11 2.013 . S
Mg6 O17 2.114 1_444 S
Mg6 O21 2.013 1_454 S
Mg6 O27 2.114 1_545 S
O7 Mg6 1.915 1_655 S
O7 Mg8 1.936 1_544 S
O7 Mg9 1.963 . S
Mg8 O7 1.936 1_566 S
Mg8 O17 2.291 . S
Mg8 O22 2.081 1_556 S
Mg8 O24 2.023 . S
Mg8 O28 2.031 1_556 S
Mg9 O7 1.963 . S
Mg9 O13 1.986 . S
Mg9 O25 1.942 . S
Mg9 O26 1.955 1_554 S
C10 O21 1.191 1_455 S
C10 O23 1.307 . S
O11 Mg6 2.013 . S
O11 C30 1.191 1_455 S
O12 Mg3 2.081 1_556 S
O12 C20 1.331 . S
O13 Mg9 1.986 . S
O13 C30 1.307 . S
O14 Mg3 2.023 . S
O14 C29 1.264 1_565 S
O15 Mg4 1.942 . S
O15 C20 1.244 1_545 S
O16 Mg4 1.955 1_554 S
O16 C29 1.273 . S
O17 Mg6 2.114 1_666 S
O17 Mg8 2.291 . S
O17 C19 1.312 1_655 S
O18 Mg3 2.031 1_556 S
O18 C19 1.208 . S
C19 O17 1.312 1_455 S
C19 O18 1.208 . S
C20 O12 1.331 . S
C20 O15 1.244 1_565 S
O21 Mg6 2.013 1_656 S
O21 C10 1.191 1_655 S
O22 C1 1.331 1_565 S
O22 Mg8 2.081 1_554 S
O23 Mg4 1.986 . S
O23 C10 1.307 . S
O24 C2 1.264 1_565 S
O24 Mg8 2.023 . S
O25 C1 1.244 . S
O25 Mg9 1.942 . S
O26 C2 1.273 . S
O26 Mg9 1.955 1_556 S
O27 C0 1.312 1_455 S
O27 Mg3 2.291 . S
O27 Mg6 2.114 1_565 S
O28 C0 1.208 . S
O28 Mg8 2.031 1_554 S
C29 O14 1.264 1_545 S
C29 O16 1.273 . S
C30 O11 1.191 1_655 S
C30 O13 1.307 . S
Cu31 N32 1.999 . S
Cu31 O37 1.974 . S
Cu31 N42 1.985 . S
Cu31 O51 1.959 . S
N32 Cu31 1.999 . S
N32 C34 1.263 . S
N32 C36 1.389 . S
N33 C34 1.358 . S
N33 C35 1.400 . S
C34 N32 1.263 . S
C34 N33 1.358 . S
C34 H40 0.930 1_655 S
C35 N33 1.400 . S
C35 C36 1.351 . S
C35 H52 0.930 . S
C36 N32 1.389 . S
C36 C35 1.351 . S
C36 H41 0.930 . S
O37 Cu31 1.974 . S
O37 C47 1.282 1_655 S
C38 O39 1.261 . S
C38 O51 1.251 1_455 S
O39 C38 1.261 . S
H40 C34 0.930 1_455 S
H41 C36 0.930 . S
N42 Cu31 1.985 . S
N42 C44 1.335 . S
N42 C45 1.390 1_655 S
N43 C44 1.345 . S
N43 C46 1.336 1_655 S
C44 N42 1.335 . S
C44 N43 1.345 . S
C44 H49 0.930 . S
C45 N42 1.390 1_455 S
C45 C46 1.346 . S
C45 H50 0.930 . S
C46 N43 1.336 1_455 S
C46 C45 1.346 . S
C46 H53 0.929 . S
C47 O37 1.282 1_455 S
C47 O48 1.216 . S
O48 C47 1.216 . S
H49 C44 0.930 . S
H50 C45 0.930 . S
O51 Cu31 1.959 . S
O51 C38 1.251 1_655 S
H52 C35 0.930 . S
H53 C46 0.929 . S
Cu54 N55 1.999 . S
Cu54 O60 1.974 . S
Cu54 N65 1.985 . S
Cu54 O74 1.959 . S
N55 Cu54 1.999 . S
N55 C57 1.263 . S
N55 C59 1.389 . S
N56 C57 1.358 . S
N56 C58 1.400 . S
C57 N55 1.263 . S
C57 N56 1.358 . S
C57 H63 0.930 1_545 S
C58 N56 1.400 . S
C58 C59 1.351 . S
C58 H75 0.930 . S
C59 N55 1.389 . S
C59 C58 1.351 . S
C59 H64 0.930 . S
O60 Cu54 1.974 . S
O60 C70 1.282 1_545 S
C61 O62 1.261 . S
C61 O74 1.251 1_565 S
O62 C61 1.261 . S
H63 C57 0.930 1_565 S
H64 C59 0.930 . S
N65 Cu54 1.985 . S
N65 C67 1.335 . S
N65 C68 1.390 1_545 S
N66 C67 1.345 . S
N66 C69 1.336 1_545 S
C67 N65 1.335 . S
C67 N66 1.345 . S
C67 H72 0.930 . S
C68 N65 1.390 1_565 S
C68 C69 1.346 . S
C68 H73 0.930 . S
C69 N66 1.336 1_565 S
C69 C68 1.346 . S
C69 H76 0.929 . S
C70 O60 1.282 1_565 S
C70 O71 1.216 . S
O71 C70 1.216 . S
H72 C67 0.930 . S
H73 C68 0.930 . S
O74 Cu54 1.959 . S
O74 C61 1.251 1_545 S
H75 C58 0.930 . S
H76 C69 0.929 . S
C77 C78 1.369 . S
C77 C79 1.419 . S
C77 H81 0.930 . S
C78 C77 1.369 . S
C78 C87 1.429 1_455 S
C79 C77 1.419 . S
C79 C80 1.363 . S
C79 H82 0.929 . S
C80 C79 1.363 . S
C80 C86 1.428 1_455 S
H81 C77 0.930 . S
H82 C79 0.929 . S
S83 N84 1.613 . S
S83 N85 1.610 . S
N84 S83 1.613 . S
N84 C87 1.350 . S
N85 S83 1.610 . S
N85 C86 1.351 . S
C86 C80 1.428 1_655 S
C86 N85 1.351 . S
C86 C87 1.434 . S
C87 C78 1.429 1_655 S
C87 N84 1.350 . S
C87 C86 1.434 . S
C88 C89 1.369 . S
C88 C90 1.419 . S
C88 H92 0.930 . S
C89 C88 1.369 . S
C89 C98 1.429 1_545 S
C90 C88 1.419 . S
C90 C91 1.363 . S
C90 H93 0.929 . S
C91 C90 1.363 . S
C91 C97 1.428 1_545 S
H92 C88 0.930 . S
H93 C90 0.929 . S
S94 N95 1.613 . S
S94 N96 1.610 . S
N95 S94 1.613 . S
N95 C98 1.350 . S
N96 S94 1.610 . S
N96 C97 1.351 . S
C97 C91 1.428 1_565 S
C97 N96 1.351 . S
C97 C98 1.434 . S
C98 C89 1.429 1_565 S
C98 N95 1.350 . S
C98 C97 1.434 . S
C99 C100 1.369 . S
C99 C101 1.419 . S
C99 H103 0.930 . S
C100 C99 1.369 . S
C100 C109 1.429 1_455 S
C101 C99 1.419 . S
C101 C102 1.363 1_455 S
C101 H104 0.929 . S
C102 C101 1.363 1_655 S
C102 C108 1.428 . S
H103 C99 0.930 . S
H104 C101 0.929 . S
S105 N106 1.613 . S
S105 N107 1.610 . S
N106 S105 1.613 . S
N106 C109 1.350 . S
N107 S105 1.610 . S
N107 C108 1.351 . S
C108 C102 1.428 . S
C108 N107 1.351 . S
C108 C109 1.434 . S
C109 C100 1.429 1_655 S
C109 N106 1.350 . S
C109 C108 1.434 . S
C110 C111 1.369 1_565 S
C110 C112 1.419 . S
C110 H114 0.930 . S
C111 C110 1.369 1_545 S
C111 C120 1.429 . S
C112 C110 1.419 . S
C112 C113 1.363 . S
C112 H115 0.929 . S
C113 C112 1.363 . S
C113 C119 1.428 1_565 S
H114 C110 0.930 . S
H115 C112 0.929 . S
S116 N117 1.613 . S
S116 N118 1.610 . S
N117 S116 1.613 . S
N117 C120 1.350 . S
N118 S116 1.610 . S
N118 C119 1.351 . S
C119 C113 1.428 1_545 S
C119 N118 1.351 . S
C119 C120 1.434 . S
C120 C111 1.429 . S
C120 N117 1.350 . S
C120 C119 1.434 . S
C121 C122 1.369 1_455 S
C121 C123 1.419 . S
C121 H125 0.930 . S
C122 C121 1.369 1_655 S
C122 C131 1.429 . S
C123 C121 1.419 . S
C123 C124 1.363 . S
C123 H126 0.929 . S
C124 C123 1.363 . S
C124 C130 1.428 1_455 S
H125 C121 0.930 . S
H126 C123 0.929 . S
S127 N128 1.613 . S
S127 N129 1.610 . S
N128 S127 1.613 . S
N128 C131 1.350 . S
N129 S127 1.610 . S
N129 C130 1.351 . S
C130 C124 1.428 1_655 S
C130 N129 1.351 . S
C130 C131 1.434 . S
C131 C122 1.429 . S
C131 N128 1.350 . S
C131 C130 1.434 . S
C132 C133 1.369 . S
C132 C134 1.419 . S
C132 H136 0.930 . S
C133 C132 1.369 . S
C133 C142 1.429 1_565 S
C134 C132 1.419 . S
C134 C135 1.363 1_565 S
C134 H137 0.929 . S
C135 C134 1.363 1_545 S
C135 C141 1.428 . S
H136 C132 0.930 . S
H137 C134 0.929 . S
S138 N139 1.613 . S
S138 N140 1.610 . S
N139 S138 1.613 . S
N139 C142 1.350 . S
N140 S138 1.610 . S
N140 C141 1.351 . S
C141 C135 1.428 . S
C141 N140 1.351 . S
C141 C142 1.434 . S
C142 C133 1.429 1_545 S
C142 N139 1.350 . S
C142 C141 1.434 . S
C143 C144 1.369 1_455 S
C143 C145 1.419 . S
C143 H147 0.930 . S
C144 C143 1.369 1_655 S
C144 C153 1.429 . S
C145 C143 1.419 . S
C145 C146 1.363 1_455 S
C145 H148 0.929 . S
C146 C145 1.363 1_655 S
C146 C152 1.428 . S
H147 C143 0.930 . S
H148 C145 0.929 . S
S149 N150 1.613 . S
S149 N151 1.610 . S
N150 S149 1.613 . S
N150 C153 1.350 . S
N151 S149 1.610 . S
N151 C152 1.351 . S
C152 C146 1.428 . S
C152 N151 1.351 . S
C152 C153 1.434 . S
C153 C144 1.429 . S
C153 N150 1.350 . S
C153 C152 1.434 . S
C154 C155 1.369 1_565 S
C154 C156 1.419 . S
C154 H158 0.930 . S
C155 C154 1.369 1_545 S
C155 C164 1.429 . S
C156 C154 1.419 . S
C156 C157 1.363 . S
C156 H159 0.929 . S
C157 C156 1.363 . S
C157 C163 1.428 1_565 S
H158 C154 0.930 . S
H159 C156 0.929 . S
S160 N161 1.613 . S
S160 N162 1.610 . S
N161 S160 1.613 . S
N161 C164 1.350 . S
N162 S160 1.610 . S
N162 C163 1.351 . S
C163 C157 1.428 1_545 S
C163 N162 1.351 . S
C163 C164 1.434 . S
C164 C155 1.429 . S
C164 N161 1.350 . S
C164 C163 1.434 . S
C78 C30 1.447 1_455 S
C80 C47 1.484 . S
C89 C1 1.430 . S
C91 N66 1.411 . S
C100 C0 1.340 1_455 S
C102 N43 1.364 . S
C111 C29 1.592 . S
C113 C70 1.643 . S
C122 C19 1.455 1_655 S
C124 C38 1.550 . S
C133 C20 1.470 . S
C135 N56 1.490 . S
C146 N33 1.385 . S
C144 C10 1.387 1_655 S
C155 C2 1.611 . S
C157 C61 1.651 . S
