# Generated by pormake.
# Topology zzz, (3,6)-cn, num edge types: 1
# Building blocks:
#     Node 0, Type 0, BuildingBlock: OLANEW_clean_sbu_2, # of connection points: 3
#     Node 1, Type 0, BuildingBlock: OLANEW_clean_sbu_2, # of connection points: 3
#     Node 2, Type 0, BuildingBlock: OLANEW_clean_sbu_2, # of connection points: 3
#     Node 3, Type 0, BuildingBlock: OLANEW_clean_sbu_2, # of connection points: 3
#     Node 4, Type 0, BuildingBlock: OLANEW_clean_sbu_2, # of connection points: 3
#     Node 5, Type 0, BuildingBlock: OLANEW_clean_sbu_2, # of connection points: 3
#     Node 6, Type 0, BuildingBlock: OLANEW_clean_sbu_2, # of connection points: 3
#     Node 7, Type 0, BuildingBlock: OLANEW_clean_sbu_2, # of connection points: 3
#     Node 8, Type 1, BuildingBlock: BETDEL_clean_sbu_0, # of connection points: 6
#     Node 9, Type 1, BuildingBlock: BETDEL_clean_sbu_0, # of connection points: 6
#     Node 10, Type 1, BuildingBlock: BETDEL_clean_sbu_0, # of connection points: 6
#     Node 11, Type 1, BuildingBlock: BETDEL_clean_sbu_0, # of connection points: 6
#     Edge 12, Type (0, 1), None
#     Edge 13, Type (0, 1), None
#     Edge 14, Type (0, 1), None
#     Edge 15, Type (0, 1), None
#     Edge 16, Type (0, 1), None
#     Edge 17, Type (0, 1), None
#     Edge 18, Type (0, 1), None
#     Edge 19, Type (0, 1), None
#     Edge 20, Type (0, 1), None
#     Edge 21, Type (0, 1), None
#     Edge 22, Type (0, 1), None
#     Edge 23, Type (0, 1), None
#     Edge 24, Type (0, 1), None
#     Edge 25, Type (0, 1), None
#     Edge 26, Type (0, 1), None
#     Edge 27, Type (0, 1), None
#     Edge 28, Type (0, 1), None
#     Edge 29, Type (0, 1), None
#     Edge 30, Type (0, 1), None
#     Edge 31, Type (0, 1), None
#     Edge 32, Type (0, 1), None
#     Edge 33, Type (0, 1), None
#     Edge 34, Type (0, 1), None
#     Edge 35, Type (0, 1), None
# Relax obj value: 0.161
# Max RMSD: 0.190
# Mean RMSD: 0.131
data_MOF--net-zzz--node1-OLANEW_clean_sbu_2--node2-BETDEL_clean_sbu_0--edge1-none
_symmetry_space_group_name_H-M    P1
_symmetry_Int_Tables_number       1
_symmetry_cell_setting            triclinic
loop_
_symmetry_equiv_pos_as_xyz
'x, y, z'
_cell_length_a     25.162547
_cell_length_b     25.71643
_cell_length_c     8.8160885
_cell_angle_alpha  93.591479
_cell_angle_beta   86.910478
_cell_angle_gamma 94.883129
loop_
_atom_site_label
_atom_site_type_symbol
_atom_site_fract_x
_atom_site_fract_y
_atom_site_fract_z
_atom_type_partial_charge
O0 O 0.78535 0.62109 0.77818 0.0
Cd1 Cd 0.70378 0.66747 0.81022 0.0
O2 O 0.75536 0.56337 -0.05791 0.0
Cd3 Cd 0.77057 0.49692 0.06803 0.0
O4 O 0.83087 0.48962 0.229 0.0
C5 C 0.87387 0.46715 0.20605 0.0
O6 O 0.88311 0.43963 0.07841 0.0
C7 C 0.79189 0.58078 0.84916 0.0
C8 C 0.61843 0.60545 0.68894 0.0
O9 O 0.65122 0.63271 0.60361 0.0
O10 O 0.62508 0.608 0.83232 0.0
O11 O 0.96875 0.76846 0.48216 0.0
Cd12 Cd 0.91865 0.68598 0.5215 0.0
O13 O 0.03524 0.764 0.63278 0.0
Cd14 Cd 0.09646 0.80866 0.76197 0.0
O15 O 0.08991 0.86542 -0.04724 0.0
C16 C 0.07989 0.91274 -0.05643 0.0
O17 O 0.07922 0.93277 0.81098 0.0
C18 C 0.01084 0.78893 0.54231 0.0
C19 C 0.98004 0.60259 0.5206 0.0
O20 O 0.96602 0.61869 0.3953 0.0
O21 O 0.96682 0.62713 0.64604 0.0
O22 O 0.74086 0.91369 0.53609 0.0
Cd23 Cd 0.81467 0.85933 0.49013 0.0
O24 O 0.73033 0.9148 0.78625 0.0
Cd25 Cd 0.68635 0.93778 -0.00298 0.0
O26 O 0.63542 0.97026 0.18111 0.0
C27 C 0.58536 0.95821 0.18925 0.0
O28 O 0.56368 0.9246 0.08757 0.0
C29 C 0.71752 0.92967 0.65936 0.0
C30 C 0.89985 0.92582 0.38953 0.0
O31 O 0.86704 0.90394 0.29438 0.0
O32 O 0.89341 0.91495 0.52951 0.0
O33 O 0.42603 0.74124 0.75296 0.0
Cd34 Cd 0.38889 0.82447 0.82849 0.0
O35 O 0.37677 0.71288 -0.05263 0.0
Cd36 Cd 0.36093 0.65074 0.09878 0.0
O37 O 0.39864 0.60376 0.24756 0.0
C38 C 0.44434 0.58624 0.22413 0.0
O39 O 0.47306 0.59519 0.09855 0.0
C40 C 0.41058 0.70454 0.83879 0.0
C41 C 0.44753 0.90986 0.70705 0.0
O42 O 0.46379 0.88754 0.81976 0.0
O43 O 0.40341 0.89192 0.65013 0.0
O44 O 0.19664 0.39518 0.48001 0.0
Cd45 Cd 0.28189 0.35524 0.46048 0.0
O46 O 0.16616 0.35224 0.27518 0.0
Cd47 Cd 0.10365 0.34643 0.11535 0.0
O48 O 0.05305 0.38031 -0.03518 0.0
C49 C 0.03192 0.42356 -0.01277 0.0
O50 O 0.03925 0.45261 0.1131 0.0
C51 C 0.15984 0.38487 0.38712 0.0
C52 C 0.36144 0.42774 0.5686 0.0
O53 O 0.35659 0.4191 0.42514 0.0
O54 O 0.32986 0.4016 0.65982 0.0
O55 O 0.92614 0.19557 0.26291 0.0
Cd56 Cd 0.89654 0.27861 0.20802 0.0
O57 O 0.9954 0.21454 0.10871 0.0
Cd58 Cd 0.05951 0.18493 -0.03448 0.0
O59 O 0.06257 0.1282 0.77487 0.0
C60 C 0.03711 0.0834 0.77968 0.0
O61 O 0.01007 0.06957 0.90392 0.0
C62 C 0.96959 0.18313 0.19644 0.0
C63 C 0.90159 0.34755 0.46077 0.0
O64 O 0.85669 0.32436 0.4236 0.0
O65 O 0.94378 0.33735 0.38065 0.0
O66 O 0.3246 0.13082 0.41121 0.0
Cd67 Cd 0.23515 0.1539 0.37333 0.0
O68 O 0.35395 0.12538 0.17104 0.0
Cd69 Cd 0.41779 0.11593 -0.00724 0.0
O70 O 0.47723 0.16067 0.85144 0.0
C71 C 0.5208 0.15057 0.78027 0.0
O72 O 0.55081 0.1892 0.7212 0.0
C73 C 0.36132 0.12156 0.31136 0.0
C74 C 0.16707 0.06379 0.39673 0.0
O75 O 0.18 0.08184 0.26651 0.0
O76 O 0.18515 0.08871 0.51577 0.0
O77 O 0.65031 0.34573 0.41948 0.0
Cd78 Cd 0.69441 0.26986 0.31154 0.0
O79 O 0.58617 0.31702 0.27005 0.0
Cd80 Cd 0.51512 0.32859 0.15259 0.0
O81 O 0.50174 0.37675 -0.03138 0.0
C82 C 0.48934 0.42327 -0.00322 0.0
O83 O 0.47727 0.4398 0.13675 0.0
C84 C 0.6054 0.3514 0.36616 0.0
C85 C 0.63826 0.17766 0.39614 0.0
O86 O 0.62232 0.20364 0.29051 0.0
O87 O 0.68105 0.19478 0.46159 0.0
Dy88 Dy 0.05099 0.94494 0.45508 0.0
C89 C 0.98792 0.13179 0.21708 0.0
C90 C 0.02695 0.84348 0.51538 0.0
Dy91 Dy 0.02046 0.03783 0.28066 0.0
O92 O 0.07012 0.87089 0.55873 0.0
O93 O 0.99794 0.87144 0.44203 0.0
O94 O 0.12896 0.98604 0.52357 0.0
O95 O 0.09428 1.00312 0.31963 0.0
C96 C 0.13091 0.01667 0.40993 0.0
C97 C 0.94349 0.96329 0.34176 0.0
O98 O 0.05243 0.99178 0.07739 0.0
O99 O 0.06419 0.91802 0.21018 0.0
O100 O 0.95899 0.09568 0.28582 0.0
O101 O 0.03524 0.11662 0.17937 0.0
O102 O 0.94769 0.98581 0.2135 0.0
O103 O 0.97901 0.98226 0.4283 0.0
O104 O 0.02605 0.99833 0.64998 0.0
O105 O 0.04156 0.07242 0.51093 0.0
C106 C 0.06449 0.9426 0.08234 0.0
C107 C 0.03429 0.04966 0.64165 0.0
Dy108 Dy 0.49479 0.05719 0.45594 0.0
C109 C 0.67476 0.96415 0.64937 0.0
C110 C 0.41067 0.10366 0.36072 0.0
Dy111 Dy 0.5932 0.02423 0.61543 0.0
O112 O 0.44714 0.08375 0.27101 0.0
O113 O 0.42033 0.09872 0.50212 0.0
O114 O 0.50028 0.98789 0.28882 0.0
O115 O 0.56936 0.0252 0.38291 0.0
C116 C 0.55151 0.987 0.29917 0.0
C117 C 0.54061 0.09837 0.77053 0.0
O118 O 0.63263 0.09418 0.50528 0.0
O119 O 0.55512 0.12589 0.42313 0.0
O120 O 0.64939 0.98808 0.7623 0.0
O121 O 0.65672 0.97449 0.5207 0.0
O122 O 0.59126 0.09286 0.7844 0.0
O123 O 0.52058 0.06037 0.68792 0.0
O124 O 0.45474 0.98941 0.57568 0.0
O125 O 0.53122 0.95882 0.66553 0.0
C126 C 0.60735 0.13015 0.44327 0.0
C127 C 0.47924 0.95466 0.64492 0.0
Dy128 Dy 0.4585 0.55505 0.71786 0.0
C129 C 0.57682 0.39757 0.41374 0.0
C130 C 0.4305 0.65253 0.81134 0.0
Dy131 Dy 0.52211 0.48067 0.52295 0.0
O132 O 0.40507 0.60897 0.852 0.0
O133 O 0.47267 0.6428 0.72693 0.0
O134 O 0.38943 0.49626 0.75475 0.0
O135 O 0.43661 0.49206 0.5487 0.0
C136 C 0.39948 0.4691 0.62837 0.0
C137 C 0.57741 0.56865 0.62191 0.0
O138 O 0.49462 0.52216 0.32958 0.0
O139 O 0.45051 0.58214 0.48627 0.0
O140 O 0.59453 0.4346 0.50857 0.0
O141 O 0.52938 0.40624 0.37516 0.0
O142 O 0.58375 0.54718 0.48586 0.0
O143 O 0.54289 0.54178 0.69923 0.0
O144 O 0.48289 0.5083 0.90186 0.0
O145 O 0.49944 0.43806 0.73346 0.0
C146 C 0.46667 0.56354 0.35057 0.0
C147 C 0.49065 0.45835 0.87299 0.0
Dy148 Dy 0.91475 0.48903 0.69385 0.0
C149 C 0.10975 0.41023 0.41136 0.0
C150 C 0.83949 0.55209 0.81284 0.0
Dy151 Dy 0.01514 0.45075 0.49084 0.0
O152 O 0.84722 0.50667 0.86201 0.0
O153 O 0.87455 0.56385 0.70446 0.0
O154 O 0.86341 0.41531 0.62634 0.0
O155 O 0.94609 0.41612 0.61583 0.0
C156 C 0.90403 0.38942 0.58046 0.0
C157 C 0.0052 0.55378 0.52126 0.0
O158 O 0.95283 0.4422 0.31797 0.0
O159 O 0.89777 0.49978 0.45179 0.0
O160 O 0.10401 0.45123 0.50218 0.0
O161 O 0.06379 0.39189 0.35989 0.0
O162 O 0.02606 0.5309 0.39962 0.0
O163 O 0.9941 0.5212 0.62096 0.0
O164 O 0.96858 0.47538 0.8798 0.0
O165 O 0.02543 0.42525 0.72362 0.0
C166 C 0.91078 0.47025 0.32893 0.0
C167 C 0.00779 0.44369 0.85897 0.0
loop_
_geom_bond_atom_site_label_1
_geom_bond_atom_site_label_2
_geom_bond_distance
_geom_bond_site_symmetry_2
_ccdc_geom_bond_type
O0 Cd1 2.300 . S
O0 C7 1.275 . S
Cd1 O0 2.300 . S
Cd1 O9 2.381 . S
Cd1 O10 2.378 1_556 S
O2 Cd3 2.385 1_556 S
O2 C7 1.255 . S
Cd3 O2 2.385 1_554 S
Cd3 O4 2.317 . S
O4 Cd3 2.317 . S
O4 C5 1.232 . S
C5 O4 1.232 . S
C5 O6 1.218 . S
O6 C5 1.218 . S
C7 O0 1.275 . S
C7 O2 1.255 . S
C8 O9 1.258 . S
C8 O10 1.256 1_556 S
O9 Cd1 2.381 . S
O9 C8 1.258 . S
O10 Cd1 2.378 1_554 S
O10 C8 1.256 1_554 S
O11 Cd12 2.300 1_655 S
O11 C18 1.275 1_655 S
Cd12 O11 2.300 1_455 S
Cd12 O20 2.381 1_455 S
Cd12 O21 2.378 . S
O13 Cd14 2.385 1_556 S
O13 C18 1.255 . S
Cd14 O13 2.385 1_554 S
Cd14 O15 2.317 . S
O15 Cd14 2.317 . S
O15 C16 1.232 . S
C16 O15 1.232 . S
C16 O17 1.218 . S
O17 C16 1.218 . S
C18 O11 1.275 1_455 S
C18 O13 1.255 . S
C19 O20 1.258 1_455 S
C19 O21 1.256 . S
O20 Cd12 2.381 1_655 S
O20 C19 1.258 1_655 S
O21 Cd12 2.378 . S
O21 C19 1.256 . S
O22 Cd23 2.300 . S
O22 C29 1.275 . S
Cd23 O22 2.300 . S
Cd23 O31 2.381 . S
Cd23 O32 2.378 . S
O24 Cd25 2.371 1_566 S
O24 C29 1.271 . S
Cd25 O24 2.371 1_544 S
Cd25 O26 2.317 1_545 S
O26 Cd25 2.317 1_565 S
O26 C27 1.232 . S
C27 O26 1.232 . S
C27 O28 1.223 . S
O28 C27 1.223 . S
C29 O22 1.275 . S
C29 O24 1.271 . S
C30 O31 1.258 . S
C30 O32 1.256 . S
O31 Cd23 2.381 . S
O31 C30 1.258 . S
O32 Cd23 2.378 . S
O32 C30 1.256 . S
O33 Cd34 2.300 1_556 S
O33 C40 1.275 . S
Cd34 O33 2.300 1_554 S
Cd34 O42 2.381 1_554 S
Cd34 O43 2.378 . S
O35 Cd36 2.385 . S
O35 C40 1.255 1_554 S
Cd36 O35 2.385 . S
Cd36 O37 2.317 . S
O37 Cd36 2.317 . S
O37 C38 1.232 . S
C38 O37 1.232 . S
C38 O39 1.218 . S
O39 C38 1.218 . S
C40 O33 1.275 . S
C40 O35 1.255 1_556 S
C41 O42 1.258 . S
C41 O43 1.256 1_556 S
O42 Cd34 2.381 1_556 S
O42 C41 1.258 . S
O43 Cd34 2.378 . S
O43 C41 1.256 1_554 S
O44 Cd45 2.300 . S
O44 C51 1.275 . S
Cd45 O44 2.300 . S
Cd45 O53 2.381 . S
Cd45 O54 2.378 . S
O46 Cd47 2.385 1_554 S
O46 C51 1.255 . S
Cd47 O46 2.385 1_556 S
Cd47 O48 2.317 . S
O48 Cd47 2.317 . S
O48 C49 1.232 . S
C49 O48 1.232 . S
C49 O50 1.218 . S
O50 C49 1.218 . S
C51 O44 1.275 . S
C51 O46 1.255 . S
C52 O53 1.258 . S
C52 O54 1.256 . S
O53 Cd45 2.381 . S
O53 C52 1.258 . S
O54 Cd45 2.378 . S
O54 C52 1.256 . S
O55 Cd56 2.300 1_655 S
O55 C62 1.275 1_655 S
Cd56 O55 2.300 1_455 S
Cd56 O64 2.381 1_455 S
Cd56 O65 2.378 . S
O57 Cd58 2.385 1_554 S
O57 C62 1.255 . S
Cd58 O57 2.385 1_556 S
Cd58 O59 2.317 . S
O59 Cd58 2.317 . S
O59 C60 1.232 . S
C60 O59 1.232 . S
C60 O61 1.218 . S
O61 C60 1.218 . S
C62 O55 1.275 1_455 S
C62 O57 1.255 . S
C63 O64 1.258 1_455 S
C63 O65 1.256 . S
O64 Cd56 2.381 1_655 S
O64 C63 1.258 1_655 S
O65 Cd56 2.378 . S
O65 C63 1.256 . S
O66 Cd67 2.300 . S
O66 C73 1.275 . S
Cd67 O66 2.300 . S
Cd67 O75 2.381 . S
Cd67 O76 2.378 . S
O68 Cd69 2.385 1_554 S
O68 C73 1.255 . S
Cd69 O68 2.385 1_556 S
Cd69 O70 2.317 . S
O70 Cd69 2.317 . S
O70 C71 1.232 . S
C71 O70 1.232 . S
C71 O72 1.218 . S
O72 C71 1.218 . S
C73 O66 1.275 . S
C73 O68 1.255 . S
C74 O75 1.258 . S
C74 O76 1.256 . S
O75 Cd67 2.381 . S
O75 C74 1.258 . S
O76 Cd67 2.378 . S
O76 C74 1.256 . S
O77 Cd78 2.300 . S
O77 C84 1.275 . S
Cd78 O77 2.300 . S
Cd78 O86 2.381 . S
Cd78 O87 2.378 . S
O79 Cd80 2.385 1_554 S
O79 C84 1.255 . S
Cd80 O79 2.385 1_556 S
Cd80 O81 2.317 . S
O81 Cd80 2.317 . S
O81 C82 1.232 . S
C82 O81 1.232 . S
C82 O83 1.218 . S
O83 C82 1.218 . S
C84 O77 1.275 . S
C84 O79 1.255 . S
C85 O86 1.258 . S
C85 O87 1.256 . S
O86 Cd78 2.381 . S
O86 C85 1.258 . S
O87 Cd78 2.378 . S
O87 C85 1.256 . S
Dy88 O92 2.398 . S
Dy88 O93 2.491 1_455 S
Dy88 O94 2.403 . S
Dy88 O95 2.664 1_565 S
Dy88 O99 2.326 . S
Dy88 O103 2.310 1_455 S
Dy88 O104 2.351 1_565 S
C89 O100 1.185 . S
C89 O101 1.355 1_655 S
C90 O92 1.185 . S
C90 O93 1.355 1_455 S
Dy91 O95 2.310 1_655 S
Dy91 O98 2.351 1_545 S
Dy91 O100 2.398 . S
Dy91 O101 2.491 1_655 S
Dy91 O102 2.403 . S
Dy91 O103 2.664 1_545 S
Dy91 O105 2.326 . S
O92 Dy88 2.398 . S
O92 C90 1.185 . S
O93 Dy88 2.491 1_655 S
O93 C90 1.355 1_655 S
O94 Dy88 2.403 . S
O94 C96 1.254 1_565 S
O95 Dy88 2.664 1_545 S
O95 Dy91 2.310 1_455 S
O95 C96 1.268 . S
C96 O94 1.254 1_545 S
C96 O95 1.268 . S
C97 O102 1.254 1_565 S
C97 O103 1.268 . S
O98 Dy91 2.351 1_565 S
O98 C106 1.249 . S
O99 Dy88 2.326 . S
O99 C106 1.267 1_455 S
O100 C89 1.185 . S
O100 Dy91 2.398 . S
O101 C89 1.355 1_455 S
O101 Dy91 2.491 1_455 S
O102 Dy91 2.403 . S
O102 C97 1.254 1_545 S
O103 Dy88 2.310 1_655 S
O103 Dy91 2.664 1_565 S
O103 C97 1.268 . S
O104 Dy88 2.351 1_545 S
O104 C107 1.249 . S
O105 Dy91 2.326 . S
O105 C107 1.267 1_655 S
C106 O98 1.249 . S
C106 O99 1.267 1_655 S
C107 O104 1.249 . S
C107 O105 1.267 1_455 S
Dy108 O112 2.398 . S
Dy108 O113 2.491 1_565 S
Dy108 O114 2.403 . S
Dy108 O115 2.664 . S
Dy108 O119 2.326 1_565 S
Dy108 O123 2.310 1_565 S
Dy108 O124 2.351 . S
C109 O120 1.185 1_556 S
C109 O121 1.355 1_545 S
C110 O112 1.186 . S
C110 O113 1.355 1_565 S
Dy111 O115 2.310 1_545 S
Dy111 O118 2.351 . S
Dy111 O120 2.398 1_556 S
Dy111 O121 2.491 1_545 S
Dy111 O122 2.403 . S
Dy111 O123 2.664 . S
Dy111 O125 2.326 1_545 S
O112 Dy108 2.398 . S
O112 C110 1.186 . S
O113 Dy108 2.491 1_545 S
O113 C110 1.355 1_545 S
O114 Dy108 2.403 . S
O114 C116 1.254 . S
O115 Dy108 2.664 . S
O115 Dy111 2.310 1_565 S
O115 C116 1.268 . S
C116 O114 1.254 . S
C116 O115 1.268 . S
C117 O122 1.254 . S
C117 O123 1.268 . S
O118 Dy111 2.351 . S
O118 C126 1.249 . S
O119 Dy108 2.326 1_545 S
O119 C126 1.267 . S
O120 C109 1.185 1_554 S
O120 Dy111 2.398 1_554 S
O121 C109 1.355 1_565 S
O121 Dy111 2.491 1_565 S
O122 Dy111 2.403 . S
O122 C117 1.254 . S
O123 Dy108 2.310 1_545 S
O123 Dy111 2.664 . S
O123 C117 1.268 . S
O124 Dy108 2.351 . S
O124 C127 1.249 . S
O125 Dy111 2.326 1_565 S
O125 C127 1.267 . S
C126 O118 1.249 . S
C126 O119 1.267 . S
C127 O124 1.249 . S
C127 O125 1.267 . S
Dy128 O132 2.398 . S
Dy128 O133 2.491 . S
Dy128 O134 2.403 . S
Dy128 O135 2.664 . S
Dy128 O139 2.326 . S
Dy128 O143 2.310 . S
Dy128 O144 2.351 . S
C129 O140 1.185 . S
C129 O141 1.355 . S
C130 O132 1.185 . S
C130 O133 1.355 . S
Dy131 O135 2.310 . S
Dy131 O138 2.351 . S
Dy131 O140 2.398 . S
Dy131 O141 2.491 . S
Dy131 O142 2.403 . S
Dy131 O143 2.664 . S
Dy131 O145 2.326 . S
O132 Dy128 2.398 . S
O132 C130 1.185 . S
O133 Dy128 2.491 . S
O133 C130 1.355 . S
O134 Dy128 2.403 . S
O134 C136 1.254 . S
O135 Dy128 2.664 . S
O135 Dy131 2.310 . S
O135 C136 1.268 . S
C136 O134 1.254 . S
C136 O135 1.268 . S
C137 O142 1.254 . S
C137 O143 1.268 . S
O138 Dy131 2.351 . S
O138 C146 1.249 . S
O139 Dy128 2.326 . S
O139 C146 1.267 . S
O140 C129 1.185 . S
O140 Dy131 2.398 . S
O141 C129 1.355 . S
O141 Dy131 2.491 . S
O142 Dy131 2.403 . S
O142 C137 1.254 . S
O143 Dy128 2.310 . S
O143 Dy131 2.664 . S
O143 C137 1.268 . S
O144 Dy128 2.351 . S
O144 C147 1.249 . S
O145 Dy131 2.326 . S
O145 C147 1.267 . S
C146 O138 1.249 . S
C146 O139 1.267 . S
C147 O144 1.249 . S
C147 O145 1.267 . S
Dy148 O152 2.398 . S
Dy148 O153 2.491 . S
Dy148 O154 2.403 . S
Dy148 O155 2.664 1_655 S
Dy148 O159 2.326 . S
Dy148 O163 2.310 . S
Dy148 O164 2.351 1_655 S
C149 O160 1.185 . S
C149 O161 1.355 . S
C150 O152 1.185 . S
C150 O153 1.355 . S
Dy151 O155 2.310 . S
Dy151 O158 2.351 1_455 S
Dy151 O160 2.398 . S
Dy151 O161 2.491 . S
Dy151 O162 2.403 . S
Dy151 O163 2.664 1_455 S
Dy151 O165 2.326 . S
O152 Dy148 2.398 . S
O152 C150 1.185 . S
O153 Dy148 2.491 . S
O153 C150 1.355 . S
O154 Dy148 2.403 . S
O154 C156 1.254 . S
O155 Dy148 2.664 1_455 S
O155 Dy151 2.310 . S
O155 C156 1.268 1_455 S
C156 O154 1.254 . S
C156 O155 1.268 1_655 S
C157 O162 1.254 . S
C157 O163 1.268 1_455 S
O158 Dy151 2.351 1_655 S
O158 C166 1.249 . S
O159 Dy148 2.326 . S
O159 C166 1.267 . S
O160 C149 1.185 . S
O160 Dy151 2.398 . S
O161 C149 1.355 . S
O161 Dy151 2.491 . S
O162 Dy151 2.403 . S
O162 C157 1.254 . S
O163 Dy148 2.310 . S
O163 Dy151 2.664 1_655 S
O163 C157 1.268 1_655 S
O164 Dy148 2.351 1_455 S
O164 C167 1.249 . S
O165 Dy151 2.326 . S
O165 C167 1.267 . S
C166 O158 1.249 . S
C166 O159 1.267 . S
C167 O164 1.249 . S
C167 O165 1.267 . S
C74 C96 2.215 . S
C126 C85 2.228 . S
C136 C52 2.186 . S
C156 C63 1.888 1_655 S
C97 C30 2.080 . S
C41 C127 2.109 . S
C8 C137 2.153 . S
C19 C157 1.851 . S
C89 C62 1.418 1_655 S
C110 C73 1.922 1_565 S
C129 C84 1.829 . S
C51 C149 1.400 . S
C18 C90 1.139 . S
C109 C29 1.582 1_545 S
C130 C40 1.424 . S
C7 C150 1.065 . S
C60 C107 1.790 . S
C71 C117 2.276 . S
C147 C82 2.279 . S
C167 C49 2.037 . S
C16 C106 1.938 1_455 S
C116 C27 2.054 . S
C146 C38 2.125 . S
C5 C166 2.139 . S
