# Generated by pormake.
# Topology scu, (8,4)-cn, num edge types: 1
# Building blocks:
#     Node 0, Type 0, BuildingBlock: VETTIZ_charged_sbu_0, # of connection points: 8
#     Node 1, Type 1, BuildingBlock: ESEHIV_clean_sbu_0, # of connection points: 4
#     Node 2, Type 1, BuildingBlock: ESEHIV_clean_sbu_0, # of connection points: 4
#     Edge 3, Type (0, 1), BuildingBlock: OJICUG_clean_linker_0, # of connection points: 2
#     Edge 4, Type (0, 1), BuildingBlock: OJICUG_clean_linker_0, # of connection points: 2
#     Edge 5, Type (0, 1), BuildingBlock: OJICUG_clean_linker_0, # of connection points: 2
#     Edge 6, Type (0, 1), BuildingBlock: OJICUG_clean_linker_0, # of connection points: 2
#     Edge 7, Type (0, 1), BuildingBlock: OJICUG_clean_linker_0, # of connection points: 2
#     Edge 8, Type (0, 1), BuildingBlock: OJICUG_clean_linker_0, # of connection points: 2
#     Edge 9, Type (0, 1), BuildingBlock: OJICUG_clean_linker_0, # of connection points: 2
#     Edge 10, Type (0, 1), BuildingBlock: OJICUG_clean_linker_0, # of connection points: 2
# Relax obj value: 0.004
# Max RMSD: 0.097
# Mean RMSD: 0.076
data_MOF--net-scu--node1-VETTIZ_charged_sbu_0--node2-ESEHIV_clean_sbu_0--edge1-OJICUG_clean_linker_0
_symmetry_space_group_name_H-M    P1
_symmetry_Int_Tables_number       1
_symmetry_cell_setting            triclinic
loop_
_symmetry_equiv_pos_as_xyz
'x, y, z'
_cell_length_a     20.293278
_cell_length_b     20.295775
_cell_length_c     13.911085
_cell_angle_alpha  93.633686
_cell_angle_beta   93.653023
_cell_angle_gamma 92.185041
loop_
_atom_site_label
_atom_site_type_symbol
_atom_site_fract_x
_atom_site_fract_y
_atom_site_fract_z
_atom_type_partial_charge
Fe0 Fe 0.03445 0.07209 0.27606 0.0
O1 O 0.0264 0.07066 0.13468 0.0
Fe2 Fe 0.04935 0.98319 0.05754 0.0
Fe3 Fe 0.94349 0.0891 0.05755 0.0
O4 O 0.0316 0.06683 0.13386 0.0
O5 O 0.9657 1.00099 0.98123 0.0
O6 O 0.96187 1.0062 0.98041 0.0
Fe7 Fe 0.96044 0.99819 0.83902 0.0
C8 C 0.8861 0.03637 0.23516 0.0
O9 O 0.01967 0.17179 0.26581 0.0
O10 O 0.9339 0.17396 0.14897 0.0
O11 O 0.06105 0.99087 0.82742 0.0
O12 O 0.10556 0.0346 0.96751 0.0
O13 O 0.13733 0.97997 0.14782 0.0
O14 O 0.13382 0.07118 0.25636 0.0
O15 O 0.9991 0.14633 0.9718 0.0
O16 O 0.97045 0.09839 0.82522 0.0
C17 C 0.16497 0.02484 0.21144 0.0
O18 O 0.96128 0.89882 0.85869 0.0
O19 O 0.05251 0.89524 0.96725 0.0
O20 O 0.93424 0.06214 0.28988 0.0
O21 O 0.88624 0.03353 0.14331 0.0
C22 C 0.97144 0.20046 0.22157 0.0
C23 C 0.99627 0.14649 0.87995 0.0
C24 C 0.8321 0.06127 0.89351 0.0
O25 O 0.85863 0.09876 0.96612 0.0
O26 O 0.86073 1.01304 0.84926 0.0
C27 C 0.11095 0.0144 0.88022 0.0
O28 O 0.99795 0.92699 0.14759 0.0
O29 O 0.04171 0.97148 0.28768 0.0
C30 C 1.00762 0.86763 0.90361 0.0
C31 C 0.01816 0.92159 0.23488 0.0
Cu32 Cu 0.02327 0.52698 0.55301 0.0
N33 N 0.07464 0.46437 0.61134 0.0
N34 N 0.08756 0.37431 0.69374 0.0
C35 C 0.0449 0.41112 0.64504 0.0
C36 C 0.14724 0.4056 0.69139 0.0
C37 C 0.1392 0.46131 0.63948 0.0
O38 O 0.95357 0.47224 0.48133 0.0
C39 C 0.03975 0.61372 0.71278 0.0
O40 O 0.10098 0.59723 0.70274 0.0
H41 H 0.99201 0.40101 0.63742 0.0
H42 H 0.1772 0.49777 0.62597 0.0
N43 N 0.06523 0.58159 0.47045 0.0
N44 N 0.07279 0.66942 0.38189 0.0
C45 C 0.04587 0.64331 0.45773 0.0
C46 C 0.10677 0.5681 0.4008 0.0
C47 C 0.11131 0.62236 0.34557 0.0
C48 C 0.94886 0.46379 0.38952 0.0
O49 O 0.97149 0.51062 0.33801 0.0
H50 H 1.00897 0.66686 0.49935 0.0
H51 H 0.12867 0.52091 0.38737 0.0
O52 O 0.99402 0.58596 0.65528 0.0
H53 H 0.19299 0.38951 0.72481 0.0
H54 H 0.13911 0.62614 0.28213 0.0
Cu55 Cu 0.50561 1.00942 0.56221 0.0
N56 N 0.45103 0.96748 0.64483 0.0
N57 N 0.3632 0.95988 0.73337 0.0
C58 C 0.38928 0.98677 0.65748 0.0
C59 C 0.41032 0.92146 0.76981 0.0
C60 C 0.46458 0.92602 0.71459 0.0
O61 O 0.44662 0.03855 0.45983 0.0
C62 C 0.56873 0.08399 0.72556 0.0
O63 O 0.52192 0.06137 0.77711 0.0
H64 H 0.36568 0.02361 0.61577 0.0
H65 H 0.51181 0.9042 0.72809 0.0
N66 N 0.56828 0.95809 0.50401 0.0
N67 N 0.65833 0.9452 0.4216 0.0
C68 C 0.62149 0.98785 0.47022 0.0
C69 C 0.57141 0.89352 0.47603 0.0
C70 C 0.62711 0.88549 0.42411 0.0
C71 C 0.41889 0.99277 0.40242 0.0
O72 O 0.43541 0.93157 0.41261 0.0
H73 H 0.63154 0.04074 0.47769 0.0
H74 H 0.53499 0.85551 0.48964 0.0
O75 O 0.56026 0.07923 0.63375 0.0
H76 H 0.40658 0.89371 0.83331 0.0
H77 H 0.64324 0.83975 0.3908 0.0
C78 C 0.94436 0.31891 0.20265 0.0
C79 C 0.9561 0.26662 0.26201 0.0
H80 H 0.93264 0.42329 0.19678 0.0
C81 C 0.95565 0.27821 0.36245 0.0
H82 H 0.944 0.3109 0.12487 0.0
C83 C 0.94703 0.34155 0.40339 0.0
C84 C 0.94069 0.39531 0.34492 0.0
H85 H 0.96336 0.23834 0.40968 0.0
H86 H 0.94927 0.34875 0.48126 0.0
C87 C 0.93754 0.38301 0.24386 0.0
C88 C 0.78185 0.96391 0.23389 0.0
C89 C 0.82763 1.01058 0.28214 0.0
H90 H 0.69209 0.90485 0.24213 0.0
C91 C 0.81816 0.032 0.37823 0.0
H92 H 0.7881 0.94601 0.16015 0.0
C93 C 0.76363 1.00885 0.42414 0.0
C94 C 0.71756 0.96291 0.37601 0.0
H95 H 0.85233 0.06776 0.41785 0.0
H96 H 0.75701 0.02728 0.49753 0.0
C97 C 0.72749 0.93977 0.28089 0.0
C98 C 0.03581 0.8 0.20803 0.0
C99 C 0.02602 0.85507 0.27149 0.0
H100 H 0.05984 0.69781 0.19372 0.0
C101 C 0.03113 0.84754 0.3714 0.0
H102 H 0.03308 0.80437 0.13067 0.0
C103 C 0.04614 0.78663 0.40715 0.0
C104 C 0.05767 0.73207 0.34404 0.0
H105 H 0.02431 0.88906 0.42215 0.0
H106 H 0.05018 0.78252 0.48451 0.0
C107 C 0.0521 0.73927 0.24402 0.0
C108 C 0.26912 0.07384 0.29721 0.0
C109 C 0.23547 0.02014 0.24356 0.0
H110 H 0.35396 0.10768 0.38872 0.0
C111 C 0.26762 0.96055 0.2307 0.0
H112 H 0.24629 0.12096 0.30705 0.0
C113 C 0.32963 0.95312 0.2776 0.0
C114 C 0.36068 1.00519 0.33777 0.0
H115 H 0.24336 0.91846 0.18929 0.0
H116 H 0.35163 0.9054 0.27052 0.0
C117 C 0.33109 0.06646 0.34377 0.0
C118 C 0.95865 0.76357 0.81754 0.0
C119 C 1.0123 0.79715 0.87144 0.0
H120 H 0.92487 0.67879 0.72589 0.0
C121 C 0.07184 0.76493 0.88456 0.0
H122 H 0.91156 0.78645 0.80748 0.0
C123 C 0.07928 0.70292 0.83771 0.0
C124 C 0.02727 0.67193 0.77732 0.0
H125 H 0.11389 0.78912 0.92617 0.0
H126 H 0.12696 0.68086 0.84502 0.0
C127 C 0.96604 0.7016 0.77103 0.0
C128 C 0.23258 0.99685 0.90713 0.0
C129 C 0.17748 1.00654 0.84363 0.0
H130 H 0.33483 0.97294 0.92152 0.0
C131 C 0.18501 1.00136 0.74373 0.0
H132 H 0.22823 0.99964 0.98449 0.0
C133 C 0.24593 0.98639 0.70802 0.0
C134 C 0.30053 0.97496 0.77117 0.0
H135 H 0.14346 1.0081 0.69294 0.0
H136 H 0.25003 0.98229 0.63066 0.0
C137 C 0.29334 0.9806 0.87118 0.0
C138 C 0.06871 0.25076 0.88139 0.0
C139 C 0.02212 0.20495 0.833 0.0
H140 H 0.12772 0.34056 0.87331 0.0
C141 C 1.00083 0.2144 0.73684 0.0
H142 H 0.08651 0.24453 0.95519 0.0
C143 C 0.02401 0.26894 0.69099 0.0
C144 C 0.06985 0.31505 0.73927 0.0
H145 H 0.96514 0.18021 0.69712 0.0
H146 H 1.00567 0.27555 0.61755 0.0
C147 C 0.09288 0.30514 0.83445 0.0
C148 C 0.75433 0.07714 0.75262 0.0
C149 C 0.76594 0.07666 0.85307 0.0
H150 H 0.68376 0.08359 0.63382 0.0
C151 C 0.71366 0.08841 0.91243 0.0
H152 H 0.7942 0.06943 0.7054 0.0
C153 C 0.64955 0.09526 0.87122 0.0
C154 C 0.63723 0.09214 0.77016 0.0
H155 H 0.72168 0.08874 0.9902 0.0
H156 H 0.60927 0.10017 0.9183 0.0
C157 C 0.69098 0.08581 0.71169 0.0
loop_
_geom_bond_atom_site_label_1
_geom_bond_atom_site_label_2
_geom_bond_distance
_geom_bond_site_symmetry_2
_ccdc_geom_bond_type
Fe0 O1 1.886 1_455 S
Fe0 O4 1.715 1_545 S
Fe0 O9 2.077 . S
Fe0 O14 1.935 . S
Fe0 O20 2.077 1_455 S
Fe0 O29 1.935 1_445 S
O1 Fe0 1.886 1_655 S
O1 Fe3 1.715 . S
Fe2 O4 1.886 . S
Fe2 O5 1.715 1_554 S
Fe2 O12 1.935 1_554 S
Fe2 O13 2.077 . S
Fe2 O19 1.935 1_554 S
Fe2 O28 2.077 . S
Fe3 O1 1.715 . S
Fe3 O6 1.886 1_554 S
Fe3 O10 1.935 . S
Fe3 O15 2.077 1_554 S
Fe3 O21 1.935 . S
Fe3 O25 2.077 1_554 S
O4 Fe0 1.715 1_565 S
O4 Fe2 1.886 . S
O5 Fe2 1.715 1_556 S
O5 Fe7 1.886 1_455 S
O6 Fe3 1.886 1_556 S
O6 Fe7 1.715 1_545 S
Fe7 O5 1.886 1_655 S
Fe7 O6 1.715 1_565 S
Fe7 O11 2.077 1_655 S
Fe7 O16 1.935 1_665 S
Fe7 O18 2.077 . S
Fe7 O26 1.935 . S
C8 O20 1.381 . S
C8 O21 1.421 . S
O9 Fe0 2.077 . S
O9 C22 1.381 1_455 S
O10 Fe3 1.935 . S
O10 C22 1.421 . S
O11 Fe7 2.077 1_455 S
O11 C27 1.381 . S
O12 Fe2 1.935 1_556 S
O12 C27 1.421 . S
O13 Fe2 2.077 . S
O13 C17 1.381 . S
O14 Fe0 1.935 . S
O14 C17 1.421 1_545 S
O15 Fe3 2.077 1_556 S
O15 C23 1.381 . S
O16 Fe7 1.935 1_445 S
O16 C23 1.421 1_455 S
C17 O13 1.381 . S
C17 O14 1.421 1_565 S
O18 Fe7 2.077 . S
O18 C30 1.381 1_655 S
O19 Fe2 1.935 1_556 S
O19 C30 1.421 . S
O20 Fe0 2.077 1_655 S
O20 C8 1.381 . S
O21 Fe3 1.935 . S
O21 C8 1.421 . S
C22 O9 1.381 1_655 S
C22 O10 1.421 . S
C23 O15 1.381 . S
C23 O16 1.421 1_655 S
C24 O25 1.381 . S
C24 O26 1.421 1_545 S
O25 Fe3 2.077 1_556 S
O25 C24 1.381 . S
O26 Fe7 1.935 . S
O26 C24 1.421 1_565 S
C27 O11 1.381 . S
C27 O12 1.421 . S
O28 Fe2 2.077 . S
O28 C31 1.381 . S
O29 Fe0 1.935 1_665 S
O29 C31 1.421 1_655 S
C30 O18 1.381 1_455 S
C30 O19 1.421 . S
C31 O28 1.381 . S
C31 O29 1.421 1_455 S
Cu32 N33 1.999 . S
Cu32 O38 1.974 . S
Cu32 N43 1.985 . S
Cu32 O52 1.959 . S
N33 Cu32 1.999 . S
N33 C35 1.263 . S
N33 C37 1.389 . S
N34 C35 1.358 . S
N34 C36 1.400 . S
C35 N33 1.263 . S
C35 N34 1.358 . S
C35 H41 0.930 1_655 S
C36 N34 1.400 . S
C36 C37 1.351 . S
C36 H53 0.930 . S
C37 N33 1.389 . S
C37 C36 1.351 . S
C37 H42 0.930 . S
O38 Cu32 1.974 . S
O38 C48 1.282 1_655 S
C39 O40 1.261 . S
C39 O52 1.251 1_455 S
O40 C39 1.261 . S
H41 C35 0.930 1_455 S
H42 C37 0.930 . S
N43 Cu32 1.985 . S
N43 C45 1.335 . S
N43 C46 1.390 1_655 S
N44 C45 1.345 . S
N44 C47 1.336 1_655 S
C45 N43 1.335 . S
C45 N44 1.345 . S
C45 H50 0.930 . S
C46 N43 1.390 1_455 S
C46 C47 1.346 . S
C46 H51 0.930 . S
C47 N44 1.336 1_455 S
C47 C46 1.346 . S
C47 H54 0.929 . S
C48 O38 1.282 1_455 S
C48 O49 1.216 . S
O49 C48 1.216 . S
H50 C45 0.930 . S
H51 C46 0.930 . S
O52 Cu32 1.959 . S
O52 C39 1.251 1_655 S
H53 C36 0.930 . S
H54 C47 0.929 . S
Cu55 N56 1.999 . S
Cu55 O61 1.974 . S
Cu55 N66 1.985 . S
Cu55 O75 1.959 . S
N56 Cu55 1.999 . S
N56 C58 1.263 . S
N56 C60 1.389 . S
N57 C58 1.358 . S
N57 C59 1.400 . S
C58 N56 1.263 . S
C58 N57 1.358 . S
C58 H64 0.930 1_545 S
C59 N57 1.400 . S
C59 C60 1.351 . S
C59 H76 0.930 . S
C60 N56 1.389 . S
C60 C59 1.351 . S
C60 H65 0.930 . S
O61 Cu55 1.974 . S
O61 C71 1.282 1_545 S
C62 O63 1.261 . S
C62 O75 1.251 1_565 S
O63 C62 1.261 . S
H64 C58 0.930 1_565 S
H65 C60 0.930 . S
N66 Cu55 1.985 . S
N66 C68 1.335 . S
N66 C69 1.390 1_545 S
N67 C68 1.345 . S
N67 C70 1.336 1_545 S
C68 N66 1.335 . S
C68 N67 1.345 . S
C68 H73 0.930 . S
C69 N66 1.390 1_565 S
C69 C70 1.346 . S
C69 H74 0.930 . S
C70 N67 1.336 1_565 S
C70 C69 1.346 . S
C70 H77 0.929 . S
C71 O61 1.282 1_565 S
C71 O72 1.216 . S
O72 C71 1.216 . S
H73 C68 0.930 . S
H74 C69 0.930 . S
O75 Cu55 1.959 . S
O75 C62 1.251 1_545 S
H76 C59 0.930 . S
H77 C70 0.929 . S
C78 C79 1.387 . S
C78 H82 0.950 . S
C78 C87 1.390 . S
C79 C78 1.387 . S
C79 C81 1.387 1_455 S
H80 C87 0.950 . S
C81 C79 1.387 1_655 S
C81 C83 1.390 . S
C81 H85 0.950 . S
H82 C78 0.950 . S
C83 C81 1.390 . S
C83 C84 1.387 1_655 S
C83 H86 0.950 . S
C84 C83 1.387 1_455 S
C84 C87 1.387 . S
H85 C81 0.950 . S
H86 C83 0.950 . S
C87 C78 1.390 . S
C87 H80 0.950 . S
C87 C84 1.387 . S
C88 C89 1.387 1_565 S
C88 H92 0.950 . S
C88 C97 1.390 . S
C89 C88 1.387 1_545 S
C89 C91 1.387 . S
H90 C97 0.950 . S
C91 C89 1.387 . S
C91 C93 1.390 . S
C91 H95 0.950 . S
H92 C88 0.950 . S
C93 C91 1.390 . S
C93 C94 1.387 . S
C93 H96 0.950 . S
C94 C93 1.387 . S
C94 C97 1.387 1_545 S
H95 C91 0.950 . S
H96 C93 0.950 . S
C97 C88 1.390 . S
C97 H90 0.950 . S
C97 C94 1.387 1_565 S
C98 C99 1.387 . S
C98 H102 0.950 . S
C98 C107 1.390 . S
C99 C98 1.387 . S
C99 C101 1.387 1_455 S
H100 C107 0.950 . S
C101 C99 1.387 1_655 S
C101 C103 1.390 . S
C101 H105 0.950 . S
H102 C98 0.950 . S
C103 C101 1.390 . S
C103 C104 1.387 . S
C103 H106 0.950 . S
C104 C103 1.387 . S
C104 C107 1.387 1_655 S
H105 C101 0.950 . S
H106 C103 0.950 . S
C107 C98 1.390 . S
C107 H100 0.950 . S
C107 C104 1.387 1_455 S
C108 C109 1.387 . S
C108 H112 0.950 . S
C108 C117 1.390 . S
C109 C108 1.387 . S
C109 C111 1.387 1_545 S
H110 C117 0.950 . S
C111 C109 1.387 1_565 S
C111 C113 1.390 . S
C111 H115 0.950 . S
H112 C108 0.950 . S
C113 C111 1.390 . S
C113 C114 1.387 . S
C113 H116 0.950 . S
C114 C113 1.387 . S
C114 C117 1.387 1_565 S
H115 C111 0.950 . S
H116 C113 0.950 . S
C117 C108 1.390 . S
C117 H110 0.950 . S
C117 C114 1.387 1_545 S
C118 C119 1.386 1_655 S
C118 H122 0.950 . S
C118 C127 1.390 . S
C119 C118 1.386 1_455 S
C119 C121 1.390 . S
H120 C127 0.950 . S
C121 C119 1.390 . S
C121 C123 1.390 . S
C121 H125 0.950 . S
H122 C118 0.950 . S
C123 C121 1.390 . S
C123 C124 1.387 . S
C123 H126 0.950 . S
C124 C123 1.387 . S
C124 C127 1.387 1_455 S
H125 C121 0.950 . S
H126 C123 0.950 . S
C127 C118 1.390 . S
C127 H120 0.950 . S
C127 C124 1.387 1_655 S
C128 C129 1.387 . S
C128 H132 0.950 . S
C128 C137 1.390 . S
C129 C128 1.387 . S
C129 C131 1.387 1_545 S
H130 C137 0.950 . S
C131 C129 1.387 1_565 S
C131 C133 1.390 . S
C131 H135 0.950 . S
H132 C128 0.950 . S
C133 C131 1.390 . S
C133 C134 1.387 1_565 S
C133 H136 0.950 . S
C134 C133 1.387 1_545 S
C134 C137 1.387 . S
H135 C131 0.950 . S
H136 C133 0.950 . S
C137 C128 1.390 . S
C137 H130 0.950 . S
C137 C134 1.387 . S
C138 C139 1.387 1_455 S
C138 H142 0.950 . S
C138 C147 1.390 . S
C139 C138 1.387 1_655 S
C139 C141 1.387 . S
H140 C147 0.950 . S
C141 C139 1.387 . S
C141 C143 1.390 . S
C141 H145 0.950 . S
H142 C138 0.950 . S
C143 C141 1.390 . S
C143 C144 1.387 . S
C143 H146 0.950 . S
C144 C143 1.387 . S
C144 C147 1.387 1_655 S
H145 C141 0.950 . S
H146 C143 0.950 . S
C147 C138 1.390 . S
C147 H140 0.950 . S
C147 C144 1.387 1_455 S
C148 C149 1.387 1_545 S
C148 H152 0.950 . S
C148 C157 1.390 . S
C149 C148 1.387 1_565 S
C149 C151 1.387 . S
H150 C157 0.950 . S
C151 C149 1.387 . S
C151 C153 1.390 . S
C151 H155 0.950 . S
H152 C148 0.950 . S
C153 C151 1.390 . S
C153 C154 1.387 . S
C153 H156 0.950 . S
C154 C153 1.387 . S
C154 C157 1.387 1_565 S
H155 C151 0.950 . S
H156 C153 0.950 . S
C157 C148 1.390 . S
C157 H150 0.950 . S
C157 C154 1.387 1_545 S
C79 C22 1.485 1_455 S
C84 C48 1.527 . S
C89 C8 1.364 . S
C94 N67 1.384 . S
C99 C31 1.394 . S
C104 N44 1.388 . S
C109 C17 1.469 1_545 S
C114 C71 1.541 . S
C119 C30 1.504 . S
C124 C39 1.580 . S
C129 C27 1.435 1_545 S
C134 N57 1.440 . S
C144 N34 1.426 . S
C139 C23 1.397 . S
C149 C24 1.527 1_565 S
C154 C62 1.571 . S
