# Generated by pormake.
# Topology ftw, (4,12)-cn, num edge types: 1
# Building blocks:
#     Node 0, Type 0, BuildingBlock: ESEHIV_clean_sbu_0, # of connection points: 4
#     Node 1, Type 0, BuildingBlock: ESEHIV_clean_sbu_0, # of connection points: 4
#     Node 2, Type 0, BuildingBlock: ESEHIV_clean_sbu_0, # of connection points: 4
#     Node 3, Type 1, BuildingBlock: QEWDON_clean_sbu_0, # of connection points: 12
#     Edge 4, Type (0, 1), BuildingBlock: AJUNOK_clean_linker_0, # of connection points: 2
#     Edge 5, Type (0, 1), BuildingBlock: AJUNOK_clean_linker_0, # of connection points: 2
#     Edge 6, Type (0, 1), BuildingBlock: AJUNOK_clean_linker_0, # of connection points: 2
#     Edge 7, Type (0, 1), BuildingBlock: AJUNOK_clean_linker_0, # of connection points: 2
#     Edge 8, Type (0, 1), BuildingBlock: AJUNOK_clean_linker_0, # of connection points: 2
#     Edge 9, Type (0, 1), BuildingBlock: AJUNOK_clean_linker_0, # of connection points: 2
#     Edge 10, Type (0, 1), BuildingBlock: AJUNOK_clean_linker_0, # of connection points: 2
#     Edge 11, Type (0, 1), BuildingBlock: AJUNOK_clean_linker_0, # of connection points: 2
#     Edge 12, Type (0, 1), BuildingBlock: AJUNOK_clean_linker_0, # of connection points: 2
#     Edge 13, Type (0, 1), BuildingBlock: AJUNOK_clean_linker_0, # of connection points: 2
#     Edge 14, Type (0, 1), BuildingBlock: AJUNOK_clean_linker_0, # of connection points: 2
#     Edge 15, Type (0, 1), BuildingBlock: AJUNOK_clean_linker_0, # of connection points: 2
# Relax obj value: 0.060
# Max RMSD: 0.163
# Mean RMSD: 0.144
data_MOF--net-ftw--node1-ESEHIV_clean_sbu_0--node2-QEWDON_clean_sbu_0--edge1-AJUNOK_clean_linker_0
_symmetry_space_group_name_H-M    P1
_symmetry_Int_Tables_number       1
_symmetry_cell_setting            triclinic
loop_
_symmetry_equiv_pos_as_xyz
'x, y, z'
_cell_length_a     20.354576
_cell_length_b     19.618221
_cell_length_c     18.301957
_cell_angle_alpha  86.100295
_cell_angle_beta   86.183264
_cell_angle_gamma 94.277773
loop_
_atom_site_label
_atom_site_type_symbol
_atom_site_fract_x
_atom_site_fract_y
_atom_site_fract_z
_atom_type_partial_charge
Cu0 Cu 0.02871 0.51429 0.54481 0.0
N1 N 0.04548 0.45147 0.47448 0.0
N2 N 0.04355 0.37177 0.39269 0.0
C3 C 0.00939 0.39923 0.44828 0.0
C4 C 0.10275 0.40802 0.38416 0.0
C5 C 0.10359 0.45696 0.43412 0.0
O6 O 0.08326 0.49911 0.62725 0.0
C7 C -0.00518 0.60729 0.44212 0.0
O8 O 0.94828 0.55701 0.44338 0.0
H9 H 0.95952 0.3821 0.46927 0.0
H10 H 0.14362 0.49516 0.44014 0.0
N11 N 0.94549 0.51052 0.59444 0.0
N12 N 0.89265 0.54711 0.69436 0.0
C13 C 0.93274 0.56455 0.63318 0.0
C14 C 0.91092 0.45636 0.63131 0.0
C15 C 0.8779 0.47886 0.69264 0.0
C16 C 0.09852 0.43831 0.6439 0.0
O17 O 0.10298 0.39601 0.5916 0.0
H18 H 0.96256 0.61282 0.62411 0.0
H19 H 0.91733 0.4035 0.62113 0.0
O20 O 0.03907 0.60248 0.48815 0.0
H21 H 0.14194 0.40106 0.34299 0.0
H22 H 0.85198 0.4461 0.73698 0.0
Cu23 Cu 0.50617 0.01835 0.51135 0.0
N24 N 0.55675 0.07955 0.56319 0.0
N25 N 0.6302 0.09206 0.64833 0.0
C26 C 0.61314 0.05946 0.58913 0.0
C27 C 0.58249 0.13506 0.66037 0.0
C28 C 0.53719 0.12731 0.60766 0.0
O29 O 0.57229 0.97005 0.45777 0.0
C30 C 0.39879 0.00543 0.60973 0.0
O31 O 0.38911 0.0609 0.56885 0.0
H32 H 0.63588 0.01458 0.57163 0.0
H33 H 0.48976 0.14872 0.60756 0.0
N34 N 0.45512 0.05456 0.43842 0.0
N35 N 0.38458 0.05272 0.34985 0.0
C36 C 0.40801 0.0171 0.4067 0.0
C37 C 0.46104 0.11637 0.40083 0.0
C38 C 0.41756 0.1153 0.34595 0.0
C39 C 0.61117 0.01147 0.41481 0.0
O40 O 0.60127 0.07696 0.41224 0.0
H41 H 0.39266 0.96403 0.42361 0.0
H42 H 0.49564 0.15853 0.41133 0.0
O43 O 0.44677 0.97065 0.59013 0.0
H44 H 0.57758 0.16532 0.70746 0.0
H45 H 0.41067 0.15718 0.30623 0.0
Cu46 Cu 0.47913 0.4678 0.06861 0.0
N47 N 0.43118 0.51847 1.00532 0.0
N48 N 0.37958 0.60832 0.96497 0.0
C49 C 0.39973 0.57315 1.02407 0.0
C50 C 0.39812 0.57375 0.90676 0.0
C51 C 0.43101 0.51872 0.9318 0.0
O52 O 0.44482 0.47754 0.16905 0.0
C53 C 0.60911 0.51083 0.10316 0.0
O54 O 0.5923 0.47967 0.16827 0.0
H55 H 0.39239 0.58708 0.08007 0.0
H56 H 0.45522 0.48308 0.89863 0.0
N57 N 0.48269 0.37764 0.04443 0.0
N58 N 0.52795 0.27886 1.03164 0.0
C59 C 0.52886 0.33704 0.06656 0.0
C60 C 0.45096 0.34385 0.99378 0.0
C61 C 0.47915 0.28263 0.98553 0.0
C62 C 0.38876 0.45405 0.19925 0.0
O63 O 0.37057 0.47183 0.26499 0.0
H64 H 0.56589 0.35231 0.10334 0.0
H65 H 0.41253 0.36382 0.96244 0.0
O66 O 0.56762 0.51068 0.0544 0.0
H67 H 0.38979 0.58818 0.85017 0.0
H68 H 0.46712 0.2456 0.94627 0.0
Zn69 Zn 0.20619 0.1081 1.00948 0.0
Zn70 Zn 0.10272 0.14539 0.11392 0.0
O71 O 0.10643 0.10389 1.01673 0.0
H72 H 0.08086 0.06452 1.00182 0.0
C73 C 0.98999 0.29843 0.91859 0.0
O74 O 0.95939 0.33159 0.96896 0.0
Zn75 Zn 0.89346 0.84086 0.13224 0.0
Zn76 Zn 0.83428 0.87369 0.972 0.0
O77 O 0.89249 0.91129 0.04754 0.0
H78 H 0.92218 0.95202 0.03898 0.0
Zn79 Zn 0.91651 0.17795 1.00253 0.0
O80 O 0.9346 0.08343 0.0447 0.0
Zn81 Zn 0.86872 0.07623 0.13129 0.0
H82 H 0.97523 0.06131 0.0412 0.0
Zn83 Zn 0.03942 0.80759 1.00154 0.0
O84 O 0.04439 0.90613 1.02988 0.0
H85 H 0.03703 0.94489 0.99684 0.0
Zn86 Zn 0.11979 0.90015 0.09637 0.0
C87 C 0.95385 0.70436 0.93817 0.0
O88 O 0.96717 0.67103 0.99948 0.0
O89 O 0.24507 0.19507 0.05525 0.0
O90 O 0.15526 0.23779 0.10493 0.0
O91 O 0.79968 0.77365 1.00114 0.0
O92 O 0.8467 0.75136 0.10611 0.0
O93 O 0.81627 0.18678 1.0054 0.0
O94 O 0.78229 0.10967 0.09797 0.0
C95 C 0.17046 0.03086 0.17398 0.0
O96 O 0.13369 0.77882 0.98972 0.0
O97 O 0.19559 0.85638 0.04381 0.0
O98 O 0.77891 0.93807 0.90785 0.0
C99 C 0.21745 0.24279 0.08686 0.0
O100 O 0.25039 0.07596 0.91232 0.0
C101 C 0.82764 0.93353 0.22026 0.0
O102 O 0.98036 0.23338 0.9211 0.0
C103 C 0.81045 0.73269 0.05546 0.0
O104 O 0.97562 0.76702 0.92655 0.0
C105 C 0.96494 0.16261 0.20086 0.0
O106 O 0.15876 0.0929 0.17913 0.0
O107 O 0.13785 -0.00452 0.13077 0.0
C108 C 0.7701 0.15387 0.04706 0.0
O109 O 0.83875 0.87093 0.21766 0.0
O110 O 0.85821 0.97619 0.17157 0.0
C111 C 0.03108 0.81641 0.19981 0.0
O112 O 0.9045 0.13985 0.20355 0.0
O113 O 0.00565 0.13933 0.15453 0.0
C114 C 0.18998 0.80413 1.00572 0.0
O115 O 0.0914 0.83719 0.18583 0.0
O116 O 0.98947 0.83763 0.1562 0.0
C117 C 0.80204 0.96033 0.84363 0.0
O118 O 0.86061 0.94321 0.82047 0.0
C119 C 0.28012 0.02177 0.90394 0.0
O120 O 0.28729 0.97976 0.96133 0.0
C121 C 0.06806 0.2741 0.31944 0.0
C122 C 0.02224 0.31807 0.34745 0.0
C123 C 0.0498 0.22432 0.27138 0.0
C124 C 0.98488 0.21637 0.24994 0.0
H125 H 0.11851 0.27812 0.33498 0.0
H126 H 0.0865 0.19139 0.25174 0.0
S127 S 0.84772 0.32252 0.30225 0.0
N128 N 0.91046 0.35315 0.34609 0.0
N129 N 0.87545 0.25919 0.25723 0.0
C130 C 0.93875 0.26047 0.27698 0.0
C131 C 0.95752 0.31129 0.32547 0.0
C132 C 0.70406 0.03826 0.31839 0.0
C133 C 0.66751 0.98952 0.36859 0.0
C134 C 0.75707 0.02049 0.27267 0.0
C135 C 0.77588 0.95309 0.27462 0.0
H136 H 0.69136 0.09094 0.31342 0.0
H137 H 0.78264 0.05984 0.23479 0.0
S138 S 0.69997 0.80687 0.40043 0.0
N139 N 0.65649 0.8717 0.42051 0.0
N140 N 0.75591 0.83769 0.33472 0.0
C141 C 0.74107 0.90407 0.32628 0.0
C142 C 0.68694 0.92235 0.37299 0.0
C143 C 0.04093 0.72309 0.38642 0.0
C144 C -0.00191 0.66393 0.38338 0.0
C145 C 0.04832 0.77419 0.32824 0.0
C146 C 0.01292 0.76831 0.26502 0.0
H147 H 0.07014 0.72933 0.43323 0.0
H148 H 0.08351 0.81787 0.33189 0.0
S149 S 0.89701 0.62247 0.22789 0.0
N150 N 0.92024 0.60238 0.31073 0.0
N151 N 0.93539 0.69815 0.20192 0.0
C152 C 0.96903 0.71038 0.26187 0.0
C153 C 0.96136 0.65826 0.32089 0.0
C154 C 0.27144 0.00321 0.3343 0.0
C155 C 0.33416 0.02956 0.30349 0.0
C156 C 0.21806 -0.00675 0.28992 0.0
C157 C 0.22636 0.00728 0.21325 0.0
H158 H 0.26243 -0.00424 0.39339 0.0
H159 H 0.16902 0.98045 0.31625 0.0
S160 S 0.38298 0.06778 0.1056 0.0
N161 N 0.40306 0.06264 0.19169 0.0
N162 N 0.30357 0.04238 0.10842 0.0
C163 C 0.29031 0.0273 0.18173 0.0
C164 C 0.34403 0.03901 0.2268 0.0
C165 C 0.90005 0.55493 0.82817 0.0
C166 C 0.89151 0.58661 0.75849 0.0
C167 C 0.91627 0.59369 0.88708 0.0
C168 C 0.92449 0.6659 0.87902 0.0
H169 H 0.89855 0.49973 0.83625 0.0
H170 H 0.92579 0.56637 0.93824 0.0
S171 S 0.89237 0.77392 0.71261 0.0
N172 N 0.88127 0.69451 0.6884 0.0
N173 N 0.91201 0.76751 0.7988 0.0
C174 C 0.90984 0.69832 0.81167 0.0
C175 C 0.89323 0.6587 0.75165 0.0
C176 C 0.30749 0.03317 0.69678 0.0
C177 C 0.36269 -0.00471 0.68351 0.0
C178 C 0.28026 0.03939 0.7679 0.0
C179 C 0.30618 0.00718 0.82929 0.0
H180 H 0.28671 0.06124 0.65198 0.0
H181 H 0.23941 0.07134 0.77475 0.0
S182 S 0.44484 0.89438 0.82476 0.0
N183 N 0.43877 0.91989 0.73771 0.0
N184 N 0.38618 0.93003 0.87194 0.0
C185 C 0.3582 0.96477 0.81687 0.0
C186 C 0.3867 0.95908 0.74389 0.0
C187 C 0.04738 0.44148 0.7724 0.0
C188 C 0.08555 0.40802 0.72089 0.0
C189 C 0.01986 0.40669 0.83829 0.0
C190 C 0.0287 0.33694 0.85497 0.0
H191 H 0.03507 0.49359 0.75995 0.0
H192 H 0.98855 0.43379 0.87455 0.0
S193 S 0.13551 0.23002 0.74598 0.0
N194 N 0.13928 0.30421 0.69694 0.0
N195 N 0.08661 0.23887 0.81981 0.0
C196 C 0.07128 0.30468 0.80701 0.0
C197 C 0.09993 0.34024 0.74035 0.0
C198 C 0.66027 0.05783 0.77392 0.0
C199 C 0.67759 0.06921 0.6981 0.0
C200 C 0.70158 0.0244 0.82097 0.0
C201 C 0.76189 0.00113 0.79405 0.0
H202 H 0.61309 0.07193 0.7965 0.0
H203 H 0.68519 0.01524 0.87857 0.0
S204 S 0.83193 0.02414 0.60026 0.0
N205 N 0.76072 0.05916 0.59907 0.0
N206 N 0.83821 -0.00377 0.68647 0.0
C207 C 0.78093 0.01515 0.71869 0.0
C208 C 0.73883 0.04907 0.67106 0.0
C209 C 0.36674 0.33872 0.15508 0.0
C210 C 0.34583 0.40413 0.16446 0.0
C211 C 0.32541 0.28802 0.12737 0.0
C212 C 0.26049 0.30008 0.11065 0.0
H213 H 0.4149 0.32605 0.17106 0.0
H214 H 0.34387 0.23811 0.1216 0.0
S215 S 0.18086 0.46242 0.13057 0.0
N216 N 0.25604 0.47854 0.15743 0.0
N217 N 0.17674 0.38224 0.10764 0.0
C218 C 0.23838 0.36509 0.12151 0.0
C219 C 0.28129 0.41726 0.14833 0.0
C220 C 0.28764 0.67006 0.92118 0.0
C221 C 0.34106 0.66679 0.96547 0.0
C222 C 0.24183 0.71886 0.93071 0.0
C223 C 0.2478 0.76637 0.98482 0.0
H224 H 0.27872 0.6318 0.88231 0.0
H225 H 0.19933 0.71671 0.89805 0.0
S226 S 0.38753 0.78849 0.10338 0.0
N227 N 0.40403 0.72202 0.05648 0.0
N228 N 0.31726 0.81378 0.07515 0.0
C229 C 0.30469 0.76803 1.02435 0.0
C230 C 0.35136 0.71798 1.01471 0.0
C231 C 0.60006 0.20705 0.09983 0.0
C232 C 0.57961 0.23301 1.03231 0.0
C233 C 0.65981 0.1763 0.10367 0.0
C234 C 0.70172 0.17223 0.04012 0.0
H235 H 0.57114 0.21393 0.15027 0.0
H236 H 0.67534 0.16012 0.1572 0.0
S237 S 0.66702 0.22586 0.8492 0.0
N238 N 0.60255 0.24692 0.90002 0.0
N239 N 0.71557 0.19014 0.90701 0.0
C240 C 0.67973 0.19395 0.97177 0.0
C241 C 0.61836 0.22409 0.96787 0.0
C242 C 0.69935 0.58564 0.14942 0.0
C243 C 0.67064 0.55619 0.09005 0.0
C244 C 0.74848 0.63989 0.13761 0.0
C245 C 0.77106 0.66604 0.0661 0.0
H246 H 0.6806 0.57016 0.20533 0.0
H247 H 0.76515 0.6647 0.1849 0.0
S248 S 0.72128 0.59756 0.8924 0.0
N249 N 0.67516 0.55026 0.95738 0.0
N250 N 0.76753 0.65238 0.93542 0.0
C251 C 0.74682 0.63314 1.00646 0.0
C252 C 0.69671 0.57803 1.0184 0.0
loop_
_geom_bond_atom_site_label_1
_geom_bond_atom_site_label_2
_geom_bond_distance
_geom_bond_site_symmetry_2
_ccdc_geom_bond_type
Cu0 N1 1.999 . S
Cu0 O6 1.974 . S
Cu0 N11 1.985 . S
Cu0 O20 1.959 . S
N1 Cu0 1.999 . S
N1 C3 1.263 . S
N1 C5 1.389 . S
N2 C3 1.358 . S
N2 C4 1.400 . S
C3 N1 1.263 . S
C3 N2 1.358 . S
C3 H9 0.930 1_455 S
C4 N2 1.400 . S
C4 C5 1.351 . S
C4 H21 0.930 . S
C5 N1 1.389 . S
C5 C4 1.351 . S
C5 H10 0.930 . S
O6 Cu0 1.974 . S
O6 C16 1.282 1_455 S
C7 O8 1.261 . S
C7 O20 1.251 1_655 S
O8 C7 1.261 . S
H9 C3 0.930 1_655 S
H10 C5 0.930 . S
N11 Cu0 1.985 . S
N11 C13 1.335 . S
N11 C14 1.390 1_455 S
N12 C13 1.345 . S
N12 C15 1.336 1_455 S
C13 N11 1.335 . S
C13 N12 1.345 . S
C13 H18 0.930 . S
C14 N11 1.390 1_655 S
C14 C15 1.346 . S
C14 H19 0.930 . S
C15 N12 1.336 1_655 S
C15 C14 1.346 . S
C15 H22 0.929 . S
C16 O6 1.282 1_655 S
C16 O17 1.216 . S
O17 C16 1.216 . S
H18 C13 0.930 . S
H19 C14 0.930 . S
O20 Cu0 1.959 . S
O20 C7 1.251 1_455 S
H21 C4 0.930 . S
H22 C15 0.929 . S
Cu23 N24 1.999 . S
Cu23 O29 1.974 . S
Cu23 N34 1.985 . S
Cu23 O43 1.959 . S
N24 Cu23 1.999 . S
N24 C26 1.263 . S
N24 C28 1.389 . S
N25 C26 1.358 . S
N25 C27 1.400 . S
C26 N24 1.263 . S
C26 N25 1.358 . S
C26 H32 0.930 1_565 S
C27 N25 1.400 . S
C27 C28 1.351 . S
C27 H44 0.930 . S
C28 N24 1.389 . S
C28 C27 1.351 . S
C28 H33 0.930 . S
O29 Cu23 1.974 . S
O29 C39 1.282 1_565 S
C30 O31 1.261 . S
C30 O43 1.251 1_545 S
O31 C30 1.261 . S
H32 C26 0.930 1_545 S
H33 C28 0.930 . S
N34 Cu23 1.985 . S
N34 C36 1.335 . S
N34 C37 1.390 1_565 S
N35 C36 1.345 . S
N35 C38 1.336 1_565 S
C36 N34 1.335 . S
C36 N35 1.345 . S
C36 H41 0.930 . S
C37 N34 1.390 1_545 S
C37 C38 1.346 . S
C37 H42 0.930 . S
C38 N35 1.336 1_545 S
C38 C37 1.346 . S
C38 H45 0.929 . S
C39 O29 1.282 1_545 S
C39 O40 1.216 . S
O40 C39 1.216 . S
H41 C36 0.930 . S
H42 C37 0.930 . S
O43 Cu23 1.959 . S
O43 C30 1.251 1_565 S
H44 C27 0.930 . S
H45 C38 0.929 . S
Cu46 N47 1.999 . S
Cu46 O52 1.974 . S
Cu46 N57 1.987 . S
Cu46 O66 1.959 . S
N47 Cu46 1.999 . S
N47 C49 1.263 1_556 S
N47 C51 1.389 . S
N48 C49 1.358 1_556 S
N48 C50 1.400 . S
C49 N47 1.263 1_554 S
C49 N48 1.358 1_554 S
C49 H55 0.930 . S
C50 N48 1.400 . S
C50 C51 1.351 . S
C50 H67 0.930 . S
C51 N47 1.389 . S
C51 C50 1.351 . S
C51 H56 0.930 . S
O52 Cu46 1.974 . S
O52 C62 1.282 1_556 S
C53 O54 1.261 . S
C53 O66 1.251 1_554 S
O54 C53 1.261 . S
H55 C49 0.930 . S
H56 C51 0.930 . S
N57 Cu46 1.987 . S
N57 C59 1.337 . S
N57 C60 1.387 1_556 S
N58 C59 1.341 1_554 S
N58 C61 1.341 . S
C59 N57 1.337 . S
C59 N58 1.341 1_556 S
C59 H64 0.930 . S
C60 N57 1.387 1_554 S
C60 C61 1.346 . S
C60 H65 0.930 . S
C61 N58 1.341 . S
C61 C60 1.346 . S
C61 H68 0.929 . S
C62 O52 1.282 1_554 S
C62 O63 1.216 . S
O63 C62 1.216 . S
H64 C59 0.930 . S
H65 C60 0.930 . S
O66 Cu46 1.959 . S
O66 C53 1.251 1_556 S
H67 C50 0.930 . S
H68 C61 0.929 . S
Zn69 O71 1.933 1_556 S
Zn69 O89 1.985 . S
Zn69 O100 1.955 . S
Zn70 O71 1.911 . S
Zn70 O90 1.970 . S
Zn70 O106 1.945 . S
Zn70 O113 1.981 . S
O71 Zn69 1.933 1_554 S
O71 Zn70 1.911 . S
O71 H72 0.841 . S
H72 O71 0.841 . S
C73 O74 1.246 . S
C73 O102 1.276 1_455 S
O74 C73 1.246 . S
Zn75 O77 1.911 . S
Zn75 O92 1.970 . S
Zn75 O109 1.945 . S
Zn75 O116 1.981 . S
Zn76 O77 1.933 1_556 S
Zn76 O91 1.985 . S
Zn76 O98 1.955 . S
O77 Zn75 1.911 . S
O77 Zn76 1.933 1_554 S
O77 H78 0.841 . S
H78 O77 0.841 . S
Zn79 O80 1.933 1_556 S
Zn79 O93 1.985 . S
Zn79 O102 1.955 . S
O80 Zn79 1.933 1_554 S
O80 Zn81 1.911 . S
O80 H82 0.841 . S
Zn81 O80 1.911 . S
Zn81 O94 1.970 . S
Zn81 O110 1.981 . S
Zn81 O112 1.945 . S
H82 O80 0.841 . S
Zn83 O84 1.933 1_556 S
Zn83 O96 1.985 . S
Zn83 O104 1.955 . S
O84 Zn83 1.933 1_554 S
O84 H85 0.841 . S
O84 Zn86 1.911 . S
H85 O84 0.841 . S
Zn86 O84 1.911 . S
Zn86 O97 1.970 . S
Zn86 O107 1.981 . S
Zn86 O115 1.945 . S
C87 O88 1.246 . S
C87 O104 1.276 1_655 S
O88 C87 1.246 . S
O89 Zn69 1.985 . S
O89 C99 1.245 . S
O90 Zn70 1.970 . S
O90 C99 1.263 1_554 S
O91 Zn76 1.985 . S
O91 C103 1.245 1_556 S
O92 Zn75 1.970 . S
O92 C103 1.263 . S
O93 Zn79 1.985 . S
O93 C108 1.245 1_556 S
O94 Zn81 1.970 . S
O94 C108 1.263 . S
C95 O106 1.279 . S
C95 O107 1.235 1_545 S
O96 Zn83 1.985 . S
O96 C114 1.245 1_556 S
O97 Zn86 1.970 . S
O97 C114 1.263 . S
O98 Zn76 1.955 . S
O98 C117 1.276 1_565 S
C99 O89 1.245 . S
C99 O90 1.263 1_556 S
O100 Zn69 1.955 . S
O100 C119 1.276 . S
C101 O109 1.262 . S
C101 O110 1.245 1_565 S
O102 C73 1.276 1_655 S
O102 Zn79 1.955 . S
C103 O91 1.245 1_554 S
C103 O92 1.263 . S
O104 Zn83 1.955 . S
O104 C87 1.276 1_455 S
C105 O112 1.262 1_455 S
C105 O113 1.245 . S
O106 Zn70 1.945 . S
O106 C95 1.279 . S
O107 Zn86 1.981 . S
O107 C95 1.235 1_565 S
C108 O93 1.245 1_554 S
C108 O94 1.263 . S
O109 Zn75 1.945 . S
O109 C101 1.262 . S
O110 Zn81 1.981 . S
O110 C101 1.245 1_545 S
C111 O115 1.262 1_655 S
C111 O116 1.245 . S
O112 Zn81 1.945 . S
O112 C105 1.262 1_655 S
O113 Zn70 1.981 . S
O113 C105 1.245 . S
C114 O96 1.245 1_554 S
C114 O97 1.263 . S
O115 Zn86 1.945 . S
O115 C111 1.262 1_455 S
O116 Zn75 1.981 . S
O116 C111 1.245 . S
C117 O98 1.276 1_545 S
C117 O118 1.246 . S
O118 C117 1.246 . S
C119 O100 1.276 . S
C119 O120 1.246 1_545 S
O120 C119 1.246 1_565 S
C121 C122 1.369 . S
C121 C123 1.419 . S
C121 H125 0.930 . S
C122 C121 1.369 . S
C122 C131 1.429 1_455 S
C123 C121 1.419 . S
C123 C124 1.363 . S
C123 H126 0.929 . S
C124 C123 1.363 . S
C124 C130 1.428 1_455 S
H125 C121 0.930 . S
H126 C123 0.929 . S
S127 N128 1.613 . S
S127 N129 1.610 . S
N128 S127 1.613 . S
N128 C131 1.350 . S
N129 S127 1.610 . S
N129 C130 1.351 . S
C130 C124 1.428 1_655 S
C130 N129 1.351 . S
C130 C131 1.434 . S
C131 C122 1.429 1_655 S
C131 N128 1.350 . S
C131 C130 1.434 . S
C132 C133 1.369 . S
C132 C134 1.419 . S
C132 H136 0.930 . S
C133 C132 1.369 . S
C133 C142 1.429 1_545 S
C134 C132 1.419 . S
C134 C135 1.363 . S
C134 H137 0.929 . S
C135 C134 1.363 . S
C135 C141 1.428 1_545 S
H136 C132 0.930 . S
H137 C134 0.929 . S
S138 N139 1.613 . S
S138 N140 1.610 . S
N139 S138 1.613 . S
N139 C142 1.350 . S
N140 S138 1.610 . S
N140 C141 1.351 . S
C141 C135 1.428 1_565 S
C141 N140 1.351 . S
C141 C142 1.434 . S
C142 C133 1.429 1_565 S
C142 N139 1.350 . S
C142 C141 1.434 . S
C143 C144 1.369 . S
C143 C145 1.419 . S
C143 H147 0.930 1_655 S
C144 C143 1.369 . S
C144 C153 1.429 . S
C145 C143 1.419 . S
C145 C146 1.363 . S
C145 H148 0.929 1_655 S
C146 C145 1.363 . S
C146 C152 1.428 . S
H147 C143 0.930 1_455 S
H148 C145 0.929 1_455 S
S149 N150 1.613 . S
S149 N151 1.610 . S
N150 S149 1.613 . S
N150 C153 1.350 . S
N151 S149 1.610 . S
N151 C152 1.351 . S
C152 C146 1.428 . S
C152 N151 1.351 . S
C152 C153 1.434 . S
C153 C144 1.429 . S
C153 N150 1.350 . S
C153 C152 1.434 . S
C154 C155 1.369 . S
C154 C156 1.419 . S
C154 H158 0.930 . S
C155 C154 1.369 . S
C155 C164 1.429 1_565 S
C156 C154 1.419 . S
C156 C157 1.363 . S
C156 H159 0.929 . S
C157 C156 1.363 . S
C157 C163 1.428 1_565 S
H158 C154 0.930 . S
H159 C156 0.929 . S
S160 N161 1.613 . S
S160 N162 1.610 . S
N161 S160 1.613 . S
N161 C164 1.350 . S
N162 S160 1.610 . S
N162 C163 1.351 . S
C163 C157 1.428 1_545 S
C163 N162 1.351 . S
C163 C164 1.434 . S
C164 C155 1.429 1_545 S
C164 N161 1.350 . S
C164 C163 1.434 . S
C165 C166 1.369 . S
C165 C167 1.419 . S
C165 H169 0.930 . S
C166 C165 1.369 . S
C166 C175 1.429 . S
C167 C165 1.419 . S
C167 C168 1.362 1_455 S
C167 H170 0.930 . S
C168 C167 1.362 1_655 S
C168 C174 1.428 . S
H169 C165 0.930 . S
H170 C167 0.930 . S
S171 N172 1.613 1_655 S
S171 N173 1.610 . S
N172 S171 1.613 1_455 S
N172 C175 1.350 . S
N173 S171 1.610 . S
N173 C174 1.351 . S
C174 C168 1.428 . S
C174 N173 1.351 . S
C174 C175 1.434 1_655 S
C175 C166 1.429 . S
C175 N172 1.350 . S
C175 C174 1.434 1_455 S
C176 C177 1.369 . S
C176 C178 1.419 . S
C176 H180 0.930 . S
C177 C176 1.369 . S
C177 C186 1.429 1_545 S
C178 C176 1.419 . S
C178 C179 1.363 1_545 S
C178 H181 0.929 . S
C179 C178 1.363 1_565 S
C179 C185 1.428 . S
H180 C176 0.930 . S
H181 C178 0.929 . S
S182 N183 1.613 . S
S182 N184 1.610 . S
N183 S182 1.613 . S
N183 C186 1.350 . S
N184 S182 1.610 . S
N184 C185 1.351 . S
C185 C179 1.428 . S
C185 N184 1.351 . S
C185 C186 1.434 . S
C186 C177 1.429 1_565 S
C186 N183 1.350 . S
C186 C185 1.434 . S
C187 C188 1.369 1_455 S
C187 C189 1.419 . S
C187 H191 0.930 . S
C188 C187 1.369 1_655 S
C188 C197 1.429 . S
C189 C187 1.419 . S
C189 C190 1.363 . S
C189 H192 0.929 . S
C190 C189 1.363 . S
C190 C196 1.428 1_455 S
H191 C187 0.930 . S
H192 C189 0.929 . S
S193 N194 1.613 . S
S193 N195 1.610 . S
N194 S193 1.613 . S
N194 C197 1.350 . S
N195 S193 1.610 . S
N195 C196 1.351 . S
C196 C190 1.428 1_655 S
C196 N195 1.351 . S
C196 C197 1.434 . S
C197 C188 1.429 . S
C197 N194 1.350 . S
C197 C196 1.434 . S
C198 C199 1.369 . S
C198 C200 1.419 1_565 S
C198 H202 0.930 . S
C199 C198 1.369 . S
C199 C208 1.429 1_565 S
C200 C198 1.419 1_545 S
C200 C201 1.363 . S
C200 H203 0.929 . S
C201 C200 1.363 . S
C201 C207 1.428 . S
H202 C198 0.930 . S
H203 C200 0.929 . S
S204 N205 1.613 1_545 S
S204 N206 1.610 . S
N205 S204 1.613 1_565 S
N205 C208 1.350 1_565 S
N206 S204 1.610 . S
N206 C207 1.351 . S
C207 C201 1.428 . S
C207 N206 1.351 . S
C207 C208 1.434 . S
C208 C199 1.429 1_545 S
C208 N205 1.350 1_545 S
C208 C207 1.434 . S
C209 C210 1.369 . S
C209 C211 1.419 . S
C209 H213 0.930 . S
C210 C209 1.369 . S
C210 C219 1.429 . S
C211 C209 1.419 . S
C211 C212 1.363 . S
C211 H214 0.929 . S
C212 C211 1.363 . S
C212 C218 1.428 1_554 S
H213 C209 0.930 . S
H214 C211 0.929 . S
S215 N216 1.613 . S
S215 N217 1.610 . S
N216 S215 1.613 . S
N216 C219 1.350 1_556 S
N217 S215 1.610 . S
N217 C218 1.351 . S
C218 C212 1.428 1_556 S
C218 N217 1.351 . S
C218 C219 1.434 1_556 S
C219 C210 1.429 . S
C219 N216 1.350 1_554 S
C219 C218 1.434 1_554 S
C220 C221 1.369 1_554 S
C220 C222 1.419 . S
C220 H224 0.930 . S
C221 C220 1.369 1_556 S
C221 C230 1.429 . S
C222 C220 1.419 . S
C222 C223 1.363 . S
C222 H225 0.929 . S
C223 C222 1.363 . S
C223 C229 1.428 1_554 S
H224 C220 0.930 . S
H225 C222 0.929 . S
S226 N227 1.613 . S
S226 N228 1.610 . S
N227 S226 1.613 . S
N227 C230 1.350 . S
N228 S226 1.610 . S
N228 C229 1.351 . S
C229 C223 1.428 1_556 S
C229 N228 1.351 . S
C229 C230 1.434 . S
C230 C221 1.429 . S
C230 N227 1.350 . S
C230 C229 1.434 . S
C231 C232 1.369 1_554 S
C231 C233 1.419 . S
C231 H235 0.930 . S
C232 C231 1.369 1_556 S
C232 C241 1.429 . S
C233 C231 1.419 . S
C233 C234 1.363 . S
C233 H236 0.929 . S
C234 C233 1.363 . S
C234 C240 1.428 1_554 S
H235 C231 0.930 . S
H236 C233 0.929 . S
S237 N238 1.613 . S
S237 N239 1.610 . S
N238 S237 1.613 . S
N238 C241 1.350 . S
N239 S237 1.610 . S
N239 C240 1.351 . S
C240 C234 1.428 1_556 S
C240 N239 1.351 . S
C240 C241 1.434 . S
C241 C232 1.429 . S
C241 N238 1.350 . S
C241 C240 1.434 . S
C242 C243 1.369 . S
C242 C244 1.419 . S
C242 H246 0.930 . S
C243 C242 1.369 . S
C243 C252 1.429 1_554 S
C244 C242 1.419 . S
C244 C245 1.363 . S
C244 H247 0.929 . S
C245 C244 1.363 . S
C245 C251 1.428 1_554 S
H246 C242 0.930 . S
H247 C244 0.929 . S
S248 N249 1.613 . S
S248 N250 1.610 . S
N249 S248 1.613 . S
N249 C252 1.350 . S
N250 S248 1.610 . S
N250 C251 1.351 . S
C251 C245 1.428 1_556 S
C251 N250 1.351 . S
C251 C252 1.434 . S
C252 C243 1.429 1_556 S
C252 N249 1.350 . S
C252 C251 1.434 . S
C124 C105 1.367 . S
C122 N2 1.376 . S
C135 C101 1.720 1_545 S
C133 C39 1.785 . S
C146 C111 1.584 . S
C144 C7 1.675 . S
C157 C95 1.492 1_565 S
C155 N35 1.508 . S
C166 N12 1.461 . S
C168 C87 1.423 . S
C179 C119 1.804 1_565 S
C177 C30 1.932 . S
C188 C16 1.804 . S
C190 C73 1.642 . S
C199 N25 1.691 . S
C201 C117 1.580 . S
C210 C62 1.376 . S
C212 C99 1.331 1_554 S
C221 N48 1.104 . S
C223 C114 1.132 . S
C234 C108 1.114 . S
C232 N58 1.085 1_556 S
C245 C103 1.340 . S
C243 C53 1.386 . S
