# Generated by pormake.
# Topology zzz, (3,6)-cn, num edge types: 1
# Building blocks:
#     Node 0, Type 0, BuildingBlock: OLANEW_clean_sbu_2, # of connection points: 3
#     Node 1, Type 0, BuildingBlock: OLANEW_clean_sbu_2, # of connection points: 3
#     Node 2, Type 0, BuildingBlock: OLANEW_clean_sbu_2, # of connection points: 3
#     Node 3, Type 0, BuildingBlock: OLANEW_clean_sbu_2, # of connection points: 3
#     Node 4, Type 0, BuildingBlock: OLANEW_clean_sbu_2, # of connection points: 3
#     Node 5, Type 0, BuildingBlock: OLANEW_clean_sbu_2, # of connection points: 3
#     Node 6, Type 0, BuildingBlock: OLANEW_clean_sbu_2, # of connection points: 3
#     Node 7, Type 0, BuildingBlock: OLANEW_clean_sbu_2, # of connection points: 3
#     Node 8, Type 1, BuildingBlock: MIFKUJ_clean_sbu_0, # of connection points: 6
#     Node 9, Type 1, BuildingBlock: MIFKUJ_clean_sbu_0, # of connection points: 6
#     Node 10, Type 1, BuildingBlock: MIFKUJ_clean_sbu_0, # of connection points: 6
#     Node 11, Type 1, BuildingBlock: MIFKUJ_clean_sbu_0, # of connection points: 6
#     Edge 12, Type (0, 1), None
#     Edge 13, Type (0, 1), None
#     Edge 14, Type (0, 1), None
#     Edge 15, Type (0, 1), None
#     Edge 16, Type (0, 1), None
#     Edge 17, Type (0, 1), None
#     Edge 18, Type (0, 1), None
#     Edge 19, Type (0, 1), None
#     Edge 20, Type (0, 1), None
#     Edge 21, Type (0, 1), None
#     Edge 22, Type (0, 1), None
#     Edge 23, Type (0, 1), None
#     Edge 24, Type (0, 1), None
#     Edge 25, Type (0, 1), None
#     Edge 26, Type (0, 1), None
#     Edge 27, Type (0, 1), None
#     Edge 28, Type (0, 1), None
#     Edge 29, Type (0, 1), None
#     Edge 30, Type (0, 1), None
#     Edge 31, Type (0, 1), None
#     Edge 32, Type (0, 1), None
#     Edge 33, Type (0, 1), None
#     Edge 34, Type (0, 1), None
#     Edge 35, Type (0, 1), None
# Relax obj value: 0.122
# Max RMSD: 0.131
# Mean RMSD: 0.081
data_MOF--net-zzz--node1-OLANEW_clean_sbu_2--node2-MIFKUJ_clean_sbu_0--edge1-none
_symmetry_space_group_name_H-M    P1
_symmetry_Int_Tables_number       1
_symmetry_cell_setting            triclinic
loop_
_symmetry_equiv_pos_as_xyz
'x, y, z'
_cell_length_a     25.885303
_cell_length_b     26.327317
_cell_length_c     9.1619098
_cell_angle_alpha  90.31229
_cell_angle_beta   89.428655
_cell_angle_gamma 91.011547
loop_
_atom_site_label
_atom_site_type_symbol
_atom_site_fract_x
_atom_site_fract_y
_atom_site_fract_z
_atom_type_partial_charge
O0 O 0.78354 0.60172 0.78023 0.0
Cd1 Cd 0.70056 0.63937 0.83222 0.0
O2 O 0.76188 0.53513 0.91118 0.0
Cd3 Cd 0.78732 0.47018 0.03177 0.0
O4 O 0.82152 0.4561 0.24162 0.0
C5 C 0.85563 0.48581 0.29594 0.0
O6 O 0.87357 0.5247 0.22072 0.0
C7 C 0.79435 0.55838 0.83025 0.0
C8 C 0.62211 0.56737 0.79487 0.0
O9 O 0.64355 0.58936 0.68513 0.0
O10 O 0.63745 0.57939 0.92326 0.0
O11 O 0.97454 0.73787 0.94389 0.0
Cd12 Cd 0.01729 0.66881 0.06592 0.0
O13 O 0.05049 0.76814 0.00025 0.0
Cd14 Cd 0.10727 0.82828 0.03235 0.0
O15 O 0.11068 0.86678 0.24113 0.0
C16 C 0.06755 0.86974 0.30777 0.0
O17 O 0.02532 0.85286 0.2441 0.0
C18 C 0.00695 0.7744 0.94119 0.0
C19 C 0.00939 0.58351 0.89123 0.0
O20 O 0.97843 0.59092 -0.00099 0.0
O21 O 0.04571 0.61611 0.86679 0.0
O22 O 0.71086 0.89844 0.83858 0.0
Cd23 Cd 0.78891 0.8928 0.98388 0.0
O24 O 0.71269 0.97101 0.95366 0.0
Cd25 Cd 0.67627 0.03757 0.04225 0.0
O26 O 0.64516 0.04742 0.25947 0.0
C27 C 0.61434 0.01409 0.31258 0.0
O28 O 0.59815 0.97588 0.23138 0.0
C29 C 0.68989 0.94055 0.86709 0.0
C30 C 0.86972 0.94993 0.86244 0.0
O31 O 0.8667 0.90165 0.84543 0.0
O32 O 0.83454 0.97184 0.93775 0.0
O33 O 0.46209 0.73432 0.8904 0.0
Cd34 Cd 0.41373 0.80615 0.98318 0.0
O35 O 0.40232 0.692 0.00956 0.0
Cd36 Cd 0.37076 0.62415 0.10911 0.0
O37 O 0.38011 0.59638 0.32809 0.0
C38 C 0.4253 0.59573 0.3808 0.0
O39 O 0.46535 0.60852 0.29901 0.0
C40 C 0.44283 0.69206 0.93065 0.0
C41 C 0.44693 0.89479 0.84899 0.0
O42 O 0.4675 0.87968 0.96744 0.0
O43 O 0.41 0.86825 0.79381 0.0
O44 O 0.20451 0.41742 0.5307 0.0
Cd45 Cd 0.28445 0.37194 0.55025 0.0
O46 O 0.18125 0.35477 0.38676 0.0
Cd47 Cd 0.12699 0.31669 0.24154 0.0
O48 O 0.10878 0.33659 0.01937 0.0
C49 C 0.073 0.36733 -0.00854 0.0
O50 O 0.04256 0.38335 0.0968 0.0
C51 C 0.17039 0.39593 0.45238 0.0
C52 C 0.36694 0.43557 0.61621 0.0
O53 O 0.33658 0.41933 0.71747 0.0
O54 O 0.35798 0.42223 0.48398 0.0
O55 O 0.94199 0.1919 0.34939 0.0
Cd56 Cd 0.91112 0.27063 0.24355 0.0
O57 O 0.02087 0.22202 0.38843 0.0
Cd58 Cd 0.01479 0.27149 0.20194 0.0
O59 O 0.98726 0.23193 0.00998 0.0
C60 C 0.00385 0.18699 -0.00298 0.0
O61 O 0.03851 0.17066 0.08848 0.0
C62 C 0.98582 0.18829 0.40947 0.0
C63 C 0.93666 0.35028 0.43365 0.0
O64 O 0.89779 0.32112 0.46177 0.0
O65 O 0.9618 0.34314 0.31468 0.0
O66 O 0.26926 0.0892 0.61596 0.0
Cd67 Cd 0.18485 0.12524 0.67348 0.0
O68 O 0.28561 0.1409 0.43297 0.0
Cd69 Cd 0.33588 0.16814 0.25587 0.0
O70 O 0.3754 0.15954 0.04637 0.0
C71 C 0.40416 0.12137 0.02825 0.0
O72 O 0.41205 0.09076 0.13811 0.0
C73 C 0.29958 0.10512 0.51556 0.0
C74 C 0.10781 0.05074 0.69591 0.0
O75 O 0.13785 0.05985 0.80342 0.0
O76 O 0.11453 0.07608 0.57817 0.0
O77 O 0.58913 0.29883 0.46026 0.0
Cd78 Cd 0.61399 0.21432 0.3817 0.0
O79 O 0.51605 0.27922 0.35473 0.0
Cd80 Cd 0.44185 0.2984 0.26275 0.0
O81 O 0.43598 0.33332 0.05004 0.0
C82 C 0.46834 0.36921 0.02579 0.0
O83 O 0.49857 0.38524 0.13124 0.0
C84 C 0.54369 0.31093 0.42578 0.0
C85 C 0.55345 0.14213 0.52774 0.0
O86 O 0.59484 0.16061 0.584 0.0
O87 O 0.54042 0.15735 0.40089 0.0
Zn88 Zn 0.97485 0.0657 0.70172 0.0
Zn89 Zn 0.02163 0.91758 0.7309 0.0
C90 C 0.98292 0.15281 0.88561 0.0
O91 O 0.94356 0.16685 0.80704 0.0
C92 C 0.06526 0.88878 0.45767 0.0
O93 O 0.10821 0.89914 0.52761 0.0
O94 O 0.9605 0.11274 0.53451 0.0
O95 O 0.0259 0.01284 0.64439 0.0
O96 O 0.0821 0.9662 0.75242 0.0
C97 C -0.00481 0.14654 0.50946 0.0
O98 O 0.03794 0.14683 0.58507 0.0
O99 O 0.00258 0.10942 0.86461 0.0
C100 C -0.00474 0.82206 0.86763 0.0
O101 O 0.95244 0.82603 0.79326 0.0
O102 O 0.02936 0.85727 0.86118 0.0
O103 O 0.95541 0.95525 0.77428 0.0
O104 O 0.91138 0.02632 0.77844 0.0
O105 O 0.02199 0.89322 0.52285 0.0
C106 C 0.07018 0.00882 0.70048 0.0
C107 C 0.91385 0.97862 0.80166 0.0
Zn108 Zn 0.43736 0.03477 0.65244 0.0
Zn109 Zn 0.55228 0.01106 0.7319 0.0
C110 C 0.41987 0.10628 0.88073 0.0
O111 O 0.40841 0.13507 0.76952 0.0
C112 C 0.60038 0.0171 0.46696 0.0
O113 O 0.62685 0.04814 0.5517 0.0
O114 O 0.36445 0.04896 0.58861 0.0
O115 O 0.48912 0.07677 0.53554 0.0
O116 O 0.53979 0.08636 0.726 0.0
C117 C 0.35243 0.08572 0.50716 0.0
O118 O 0.38914 0.11303 0.44435 0.0
O119 O 0.43658 0.0618 0.85798 0.0
C120 C 0.6394 0.95287 0.80664 0.0
O121 O 0.61401 0.91889 0.72868 0.0
O122 O 0.62048 -0.00327 0.82604 0.0
O123 O 0.5017 0.96676 0.84036 0.0
O124 O 0.44427 0.95848 0.66582 0.0
O125 O 0.56284 -0.0087 0.52085 0.0
C126 C 0.524 0.10187 0.60314 0.0
C127 C 0.46532 0.94188 0.7804 0.0
Zn128 Zn 0.51987 0.45145 0.64913 0.0
Zn129 Zn 0.47145 0.54306 0.78791 0.0
C130 C 0.47573 0.38897 0.87823 0.0
O131 O 0.45251 0.36636 0.76835 0.0
C132 C 0.43197 0.58151 0.53304 0.0
O133 O 0.39129 0.57878 0.61962 0.0
O134 O 0.55101 0.39122 0.54403 0.0
O135 O 0.45089 0.46516 0.56102 0.0
O136 O 0.41932 0.48475 0.77786 0.0
C137 C 0.52298 0.36007 0.47188 0.0
O138 O 0.47371 0.36909 0.45537 0.0
O139 O 0.50671 0.42621 0.85493 0.0
C140 C 0.46632 0.64442 0.8829 0.0
O141 O 0.50928 0.64593 0.8054 0.0
O142 O 0.44237 0.60221 0.89973 0.0
O143 O 0.54238 0.53131 0.8693 0.0
O144 O 0.57138 0.51027 0.65208 0.0
O145 O 0.47586 0.56913 0.58132 0.0
C146 C 0.41343 0.46511 0.65151 0.0
C147 C 0.57817 0.53248 0.77399 0.0
Zn148 Zn 0.03538 0.45968 0.62313 0.0
Zn149 Zn 0.91957 0.47117 0.70408 0.0
C150 C 0.07138 0.39037 0.84696 0.0
O151 O 0.11028 0.38369 0.75674 0.0
C152 C 0.87191 0.47736 0.44584 0.0
O153 O 0.84649 0.44311 0.52323 0.0
O154 O 0.10701 0.45238 0.53698 0.0
O155 O 0.9854 0.42421 0.4876 0.0
O156 O 0.93023 0.397 0.65695 0.0
C157 C 0.11741 0.41472 0.45493 0.0
O158 O 0.0797 0.38482 0.4099 0.0
O159 O 0.03543 0.42042 0.81385 0.0
C160 C 0.84458 0.53641 0.79524 0.0
O161 O 0.88105 0.56597 0.7397 0.0
O162 O 0.85142 0.48857 0.79923 0.0
O163 O 0.96935 0.50537 0.83975 0.0
O164 O 0.02558 0.53349 0.67747 0.0
O165 O 0.91029 0.501 0.50259 0.0
C166 C 0.95224 0.3915 0.53278 0.0
C167 C 0.002 0.53867 0.79859 0.0
loop_
_geom_bond_atom_site_label_1
_geom_bond_atom_site_label_2
_geom_bond_distance
_geom_bond_site_symmetry_2
_ccdc_geom_bond_type
O0 Cd1 2.300 . S
O0 C7 1.275 . S
Cd1 O0 2.300 . S
Cd1 O9 2.381 . S
Cd1 O10 2.378 1_556 S
O2 Cd3 2.385 1_556 S
O2 C7 1.255 . S
Cd3 O2 2.385 1_554 S
Cd3 O4 2.317 . S
O4 Cd3 2.317 . S
O4 C5 1.232 . S
C5 O4 1.232 . S
C5 O6 1.218 . S
O6 C5 1.218 . S
C7 O0 1.275 . S
C7 O2 1.255 . S
C8 O9 1.258 . S
C8 O10 1.256 1_556 S
O9 Cd1 2.381 . S
O9 C8 1.258 . S
O10 Cd1 2.378 1_554 S
O10 C8 1.256 1_554 S
O11 Cd12 2.300 1_655 S
O11 C18 1.275 1_655 S
Cd12 O11 2.300 1_455 S
Cd12 O20 2.381 1_455 S
Cd12 O21 2.378 1_556 S
O13 Cd14 2.385 . S
O13 C18 1.255 1_554 S
Cd14 O13 2.385 . S
Cd14 O15 2.317 . S
O15 Cd14 2.317 . S
O15 C16 1.232 . S
C16 O15 1.232 . S
C16 O17 1.218 . S
O17 C16 1.218 . S
C18 O11 1.275 1_455 S
C18 O13 1.255 1_556 S
C19 O20 1.258 1_455 S
C19 O21 1.256 1_556 S
O20 Cd12 2.381 1_655 S
O20 C19 1.258 1_655 S
O21 Cd12 2.378 1_554 S
O21 C19 1.256 1_554 S
O22 Cd23 2.300 . S
O22 C29 1.275 . S
Cd23 O22 2.300 . S
Cd23 O31 2.381 . S
Cd23 O32 2.378 1_556 S
O24 Cd25 2.385 1_565 S
O24 C29 1.255 1_554 S
Cd25 O24 2.385 1_545 S
Cd25 O26 2.317 1_545 S
O26 Cd25 2.317 1_565 S
O26 C27 1.232 . S
C27 O26 1.232 . S
C27 O28 1.218 . S
O28 C27 1.218 . S
C29 O22 1.275 . S
C29 O24 1.255 1_556 S
C30 O31 1.258 . S
C30 O32 1.256 1_556 S
O31 Cd23 2.381 . S
O31 C30 1.258 . S
O32 Cd23 2.378 1_554 S
O32 C30 1.256 1_554 S
O33 Cd34 2.300 . S
O33 C40 1.275 . S
Cd34 O33 2.300 . S
Cd34 O42 2.381 . S
Cd34 O43 2.378 1_556 S
O35 Cd36 2.385 . S
O35 C40 1.255 1_554 S
Cd36 O35 2.385 . S
Cd36 O37 2.317 . S
O37 Cd36 2.317 . S
O37 C38 1.232 . S
C38 O37 1.232 . S
C38 O39 1.218 . S
O39 C38 1.218 . S
C40 O33 1.275 . S
C40 O35 1.255 1_556 S
C41 O42 1.258 . S
C41 O43 1.256 1_556 S
O42 Cd34 2.381 . S
O42 C41 1.258 . S
O43 Cd34 2.378 1_554 S
O43 C41 1.256 1_554 S
O44 Cd45 2.300 . S
O44 C51 1.275 . S
Cd45 O44 2.300 . S
Cd45 O53 2.381 . S
Cd45 O54 2.378 . S
O46 Cd47 2.385 . S
O46 C51 1.255 . S
Cd47 O46 2.385 . S
Cd47 O48 2.317 . S
O48 Cd47 2.317 . S
O48 C49 1.232 1_554 S
C49 O48 1.232 1_556 S
C49 O50 1.218 1_556 S
O50 C49 1.218 1_554 S
C51 O44 1.275 . S
C51 O46 1.255 . S
C52 O53 1.258 . S
C52 O54 1.256 . S
O53 Cd45 2.381 . S
O53 C52 1.258 . S
O54 Cd45 2.378 . S
O54 C52 1.256 . S
O55 Cd56 2.300 1_655 S
O55 C62 1.275 1_655 S
Cd56 O55 2.300 1_455 S
Cd56 O64 2.381 1_455 S
Cd56 O65 2.378 . S
O57 Cd58 2.385 . S
O57 C62 1.255 . S
Cd58 O57 2.385 . S
Cd58 O59 2.317 . S
O59 Cd58 2.317 . S
O59 C60 1.232 1_554 S
C60 O59 1.232 1_556 S
C60 O61 1.218 1_556 S
O61 C60 1.218 1_554 S
C62 O55 1.275 1_455 S
C62 O57 1.255 . S
C63 O64 1.258 1_455 S
C63 O65 1.256 . S
O64 Cd56 2.381 1_655 S
O64 C63 1.258 1_655 S
O65 Cd56 2.378 . S
O65 C63 1.256 . S
O66 Cd67 2.300 . S
O66 C73 1.275 . S
Cd67 O66 2.300 . S
Cd67 O75 2.381 . S
Cd67 O76 2.378 . S
O68 Cd69 2.385 . S
O68 C73 1.255 . S
Cd69 O68 2.385 . S
Cd69 O70 2.317 . S
O70 Cd69 2.317 . S
O70 C71 1.232 1_554 S
C71 O70 1.232 1_556 S
C71 O72 1.218 1_556 S
O72 C71 1.218 1_554 S
C73 O66 1.275 . S
C73 O68 1.255 . S
C74 O75 1.258 . S
C74 O76 1.256 . S
O75 Cd67 2.381 . S
O75 C74 1.258 . S
O76 Cd67 2.378 . S
O76 C74 1.256 . S
O77 Cd78 2.300 . S
O77 C84 1.275 . S
Cd78 O77 2.300 . S
Cd78 O86 2.381 . S
Cd78 O87 2.378 . S
O79 Cd80 2.385 . S
O79 C84 1.255 . S
Cd80 O79 2.385 . S
Cd80 O81 2.317 . S
O81 Cd80 2.317 . S
O81 C82 1.232 1_554 S
C82 O81 1.232 1_556 S
C82 O83 1.218 1_556 S
O83 C82 1.218 1_554 S
C84 O77 1.275 . S
C84 O79 1.255 . S
C85 O86 1.258 . S
C85 O87 1.256 . S
O86 Cd78 2.381 . S
O86 C85 1.258 . S
O87 Cd78 2.378 . S
O87 C85 1.256 . S
Zn88 O94 1.969 . S
Zn88 O95 1.965 1_655 S
Zn88 O99 2.024 1_655 S
Zn88 O104 1.969 . S
Zn89 O96 1.969 . S
Zn89 O102 1.969 . S
Zn89 O103 1.965 1_455 S
Zn89 O105 2.024 1_455 S
C90 O91 1.229 1_455 S
C90 O99 1.058 . S
O91 C90 1.229 1_655 S
C92 O93 1.229 1_655 S
C92 O105 1.058 . S
O93 C92 1.229 1_455 S
O94 Zn88 1.969 . S
O94 C97 1.267 . S
O95 Zn88 1.965 1_455 S
O95 C106 1.260 . S
O96 Zn89 1.969 . S
O96 C106 1.258 1_565 S
C97 O94 1.267 . S
C97 O98 1.228 1_655 S
O98 C97 1.228 1_455 S
O99 Zn88 2.024 1_455 S
O99 C90 1.058 . S
C100 O101 1.228 1_455 S
C100 O102 1.267 . S
O101 C100 1.228 1_655 S
O102 Zn89 1.969 . S
O102 C100 1.267 . S
O103 Zn89 1.965 1_655 S
O103 C107 1.260 1_565 S
O104 Zn88 1.969 . S
O104 C107 1.258 . S
O105 Zn89 2.024 1_655 S
O105 C92 1.058 . S
C106 O95 1.260 . S
C106 O96 1.258 1_545 S
C107 O103 1.260 1_545 S
C107 O104 1.258 . S
Zn108 O114 1.969 1_545 S
Zn108 O115 1.965 . S
Zn108 O119 2.024 . S
Zn108 O124 1.969 1_545 S
Zn109 O116 1.969 1_565 S
Zn109 O122 1.969 1_565 S
Zn109 O123 1.965 . S
Zn109 O125 2.024 . S
C110 O111 1.229 . S
C110 O119 1.058 . S
O111 C110 1.229 . S
C112 O113 1.229 1_565 S
C112 O125 1.058 . S
O113 C112 1.229 1_545 S
O114 Zn108 1.969 1_565 S
O114 C117 1.267 1_565 S
O115 Zn108 1.965 . S
O115 C126 1.260 . S
O116 Zn109 1.969 1_545 S
O116 C126 1.258 . S
C117 O114 1.267 1_545 S
C117 O118 1.228 . S
O118 C117 1.228 . S
O119 Zn108 2.024 . S
O119 C110 1.058 . S
C120 O121 1.228 . S
C120 O122 1.267 1_565 S
O121 C120 1.228 . S
O122 Zn109 1.969 1_545 S
O122 C120 1.267 1_545 S
O123 Zn109 1.965 . S
O123 C127 1.260 . S
O124 Zn108 1.969 1_565 S
O124 C127 1.258 . S
O125 Zn109 2.024 . S
O125 C112 1.058 . S
C126 O115 1.260 . S
C126 O116 1.258 . S
C127 O123 1.260 . S
C127 O124 1.258 . S
Zn128 O134 1.969 . S
Zn128 O135 1.965 . S
Zn128 O139 2.024 . S
Zn128 O144 1.969 . S
Zn129 O136 1.969 . S
Zn129 O142 1.969 . S
Zn129 O143 1.965 . S
Zn129 O145 2.024 . S
C130 O131 1.229 . S
C130 O139 1.058 . S
O131 C130 1.229 . S
C132 O133 1.229 . S
C132 O145 1.058 . S
O133 C132 1.229 . S
O134 Zn128 1.969 . S
O134 C137 1.267 . S
O135 Zn128 1.965 . S
O135 C146 1.260 . S
O136 Zn129 1.969 . S
O136 C146 1.258 . S
C137 O134 1.267 . S
C137 O138 1.228 . S
O138 C137 1.228 . S
O139 Zn128 2.024 . S
O139 C130 1.058 . S
C140 O141 1.228 . S
C140 O142 1.267 . S
O141 C140 1.228 . S
O142 Zn129 1.969 . S
O142 C140 1.267 . S
O143 Zn129 1.965 . S
O143 C147 1.260 . S
O144 Zn128 1.969 . S
O144 C147 1.258 . S
O145 Zn129 2.024 . S
O145 C132 1.058 . S
C146 O135 1.260 . S
C146 O136 1.258 . S
C147 O143 1.260 . S
C147 O144 1.258 . S
Zn148 O154 1.969 . S
Zn148 O155 1.965 . S
Zn148 O159 2.024 . S
Zn148 O164 1.969 . S
Zn149 O156 1.969 . S
Zn149 O162 1.969 . S
Zn149 O163 1.965 . S
Zn149 O165 2.024 . S
C150 O151 1.229 . S
C150 O159 1.058 . S
O151 C150 1.229 . S
C152 O153 1.229 . S
C152 O165 1.058 . S
O153 C152 1.229 . S
O154 Zn148 1.969 . S
O154 C157 1.267 . S
O155 Zn148 1.965 . S
O155 C166 1.260 1_455 S
O156 Zn149 1.969 . S
O156 C166 1.258 . S
C157 O154 1.267 . S
C157 O158 1.228 . S
O158 C157 1.228 . S
O159 Zn148 2.024 . S
O159 C150 1.058 . S
C160 O161 1.228 . S
C160 O162 1.267 . S
O161 C160 1.228 . S
O162 Zn149 1.969 . S
O162 C160 1.267 . S
O163 Zn149 1.965 . S
O163 C167 1.260 1_655 S
O164 Zn148 1.969 . S
O164 C167 1.258 . S
O165 Zn149 2.024 . S
O165 C152 1.058 . S
C166 O155 1.260 1_655 S
C166 O156 1.258 . S
C167 O163 1.260 1_455 S
C167 O164 1.258 . S
C74 C106 2.060 . S
C126 C85 1.514 . S
C146 C52 2.035 . S
C166 C63 1.557 1_655 S
C107 C30 1.847 1_545 S
C41 C127 1.488 . S
C8 C147 1.821 . S
C19 C167 1.499 . S
C97 C62 1.067 1_655 S
C117 C73 1.375 . S
C137 C84 1.019 . S
C51 C157 1.401 . S
C18 C100 0.866 . S
C120 C29 0.991 . S
C140 C40 0.872 . S
C7 C160 1.007 . S
C60 C90 1.170 . S
C71 C110 1.560 . S
C130 C82 1.111 . S
C150 C49 1.584 . S
C16 C92 1.329 1_455 S
C112 C27 1.094 . S
C132 C38 1.381 . S
C5 C152 1.099 . S
