# Generated by pormake.
# Topology nia, (6,6)-cn, num edge types: 1
# Building blocks:
#     Node 0, Type 0, BuildingBlock: PAMTOO_clean_sbu_0, # of connection points: 6
#     Node 1, Type 0, BuildingBlock: PAMTOO_clean_sbu_0, # of connection points: 6
#     Node 2, Type 1, BuildingBlock: MIDCAF_clean_sbu_0, # of connection points: 6
#     Node 3, Type 1, BuildingBlock: MIDCAF_clean_sbu_0, # of connection points: 6
#     Edge 4, Type (0, 1), BuildingBlock: OJICUG_clean_linker_0, # of connection points: 2
#     Edge 5, Type (0, 1), BuildingBlock: OJICUG_clean_linker_0, # of connection points: 2
#     Edge 6, Type (0, 1), BuildingBlock: OJICUG_clean_linker_0, # of connection points: 2
#     Edge 7, Type (0, 1), BuildingBlock: OJICUG_clean_linker_0, # of connection points: 2
#     Edge 8, Type (0, 1), BuildingBlock: OJICUG_clean_linker_0, # of connection points: 2
#     Edge 9, Type (0, 1), BuildingBlock: OJICUG_clean_linker_0, # of connection points: 2
#     Edge 10, Type (0, 1), BuildingBlock: OJICUG_clean_linker_0, # of connection points: 2
#     Edge 11, Type (0, 1), BuildingBlock: OJICUG_clean_linker_0, # of connection points: 2
#     Edge 12, Type (0, 1), BuildingBlock: OJICUG_clean_linker_0, # of connection points: 2
#     Edge 13, Type (0, 1), BuildingBlock: OJICUG_clean_linker_0, # of connection points: 2
#     Edge 14, Type (0, 1), BuildingBlock: OJICUG_clean_linker_0, # of connection points: 2
#     Edge 15, Type (0, 1), BuildingBlock: OJICUG_clean_linker_0, # of connection points: 2
# Relax obj value: 0.190
# Max RMSD: 0.291
# Mean RMSD: 0.203
data_MOF--net-nia--node1-PAMTOO_clean_sbu_0--node2-MIDCAF_clean_sbu_0--edge1-OJICUG_clean_linker_0
_symmetry_space_group_name_H-M    P1
_symmetry_Int_Tables_number       1
_symmetry_cell_setting            triclinic
loop_
_symmetry_equiv_pos_as_xyz
'x, y, z'
_cell_length_a     23.259999
_cell_length_b     23.157307
_cell_length_c     20.773476
_cell_angle_alpha  89.629313
_cell_angle_beta   90.487082
_cell_angle_gamma 137.24939
loop_
_atom_site_label
_atom_site_type_symbol
_atom_site_fract_x
_atom_site_fract_y
_atom_site_fract_z
_atom_type_partial_charge
Dy0 Dy -0.03047 0.93256 0.21133 0.0
Dy1 Dy 0.93536 -0.00461 1.08766 0.0
C2 C 0.09586 0.03075 1.08898 0.0
O3 O -0.0004 0.04338 0.2476 0.0
O4 O 0.03708 0.10785 0.14939 0.0
O5 O 0.04835 -0.04225 0.28872 0.0
O6 O 0.92195 0.83061 0.27423 0.0
O7 O 0.85195 -0.036 0.16744 0.0
O8 O 0.83684 0.86636 0.21966 0.0
O9 O 0.86 0.85996 1.06719 0.0
O10 O -0.06319 0.85218 1.12806 0.0
O11 O 0.85161 -0.02973 1.01595 0.0
O12 O -0.01881 0.09565 1.02279 0.0
C13 C 0.03925 0.11122 0.21247 0.0
O14 O 0.08714 0.0174 0.15163 0.0
O15 O 0.03744 0.01238 1.05291 0.0
C16 C 0.02715 0.84163 0.30826 0.0
C17 C 0.08894 0.77263 0.30855 0.0
C18 C 0.14514 0.86115 0.3112 0.0
C19 C 0.11464 0.89527 0.31121 0.0
C20 C -0.02915 0.753 0.3082 0.0
C21 C 0.00141 0.71886 0.30822 0.0
C22 C -0.00559 0.87737 0.30384 0.0
C23 C 0.81106 0.90014 0.20775 0.0
C24 C 0.88188 0.82287 1.08195 0.0
C25 C 0.87705 0.08782 0.99599 0.0
C26 C 0.81203 0.15335 0.98847 0.0
C27 C 0.78878 0.09881 1.03916 0.0
C28 C 0.82073 0.06628 1.04274 0.0
C29 C 0.90445 0.14586 0.94749 0.0
C30 C 0.87242 0.17856 0.94377 0.0
C31 C 0.9067 0.04946 0.99735 0.0
H32 H 0.21294 0.90423 0.31331 0.0
H33 H 0.15979 -0.03625 0.31273 0.0
H34 H 0.90301 0.70988 0.30702 0.0
H35 H -0.04349 0.65044 0.30636 0.0
H36 H 0.74544 0.08066 1.0762 0.0
H37 H 0.80049 0.02332 1.08165 0.0
H38 H -0.05136 0.1639 0.91132 0.0
H39 H 0.89205 0.22024 0.904 0.0
Dy40 Dy -0.02303 0.9398 0.58134 0.0
Dy41 Dy 0.9184 -0.01706 0.70118 0.0
C42 C 0.87978 0.81881 0.70359 0.0
O43 O 0.84307 0.86824 0.56321 0.0
O44 O 0.84833 -0.04055 0.61312 0.0
O45 O -0.05739 0.84706 0.51491 0.0
O46 O 0.06659 -0.0218 0.50957 0.0
O47 O 0.00919 0.10213 0.64358 0.0
O48 O 0.01088 0.05378 0.54752 0.0
O49 O 0.02967 0.01769 0.74266 0.0
O50 O 0.0852 0.01737 0.65071 0.0
O51 O -0.06161 0.05946 0.77728 0.0
O52 O 0.81223 0.93416 0.75713 0.0
C53 C 0.81354 0.89879 0.57136 0.0
O54 O -0.0591 0.85458 0.66238 0.0
O55 O 0.85013 0.84896 0.71348 0.0
C56 C 0.05675 0.87094 0.48446 0.0
C57 C 0.1284 0.81219 0.47907 0.0
C58 C 0.0402 0.75474 0.47528 0.0
C59 C 0.00483 0.7838 0.47764 0.0
C60 C 0.1452 0.92881 0.48608 0.0
C61 C 0.18066 0.89967 0.48341 0.0
C62 C 0.01807 0.90043 0.48968 0.0
C63 C 0.02849 0.11255 0.58222 0.0
C64 C 0.08964 0.03388 0.71217 0.0
C65 C 0.82311 0.03829 0.79084 0.0
C66 C 0.75778 0.10348 0.79662 0.0
C67 C 0.81433 0.12918 0.74753 0.0
C68 C 0.8468 0.0971 0.7448 0.0
C69 C 0.7641 0.00942 0.83807 0.0
C70 C 0.73173 0.04167 0.84105 0.0
C71 C 0.85756 0.00482 0.78903 0.0
H72 H -0.00161 0.68711 0.47017 0.0
H73 H -0.06339 0.73777 0.47459 0.0
H74 H 0.18712 -0.00346 0.49025 0.0
H75 H 0.24885 0.94544 0.48629 0.0
H76 H 0.83355 0.17395 0.71082 0.0
H77 H 0.89056 0.11835 0.7068 0.0
H78 H 0.74445 -0.03672 0.87362 0.0
H79 H 0.68905 0.02052 0.8799 0.0
Zn80 Zn 0.31444 0.61501 0.26593 0.0
Zn81 Zn 0.31886 0.61783 0.5164 0.0
Zn82 Zn 0.31661 0.60461 0.3906 0.0
C83 C 0.48521 0.71838 0.47762 0.0
C84 C 0.21644 0.44603 0.48645 0.0
O85 O 0.2555 0.64212 0.3574 0.0
O86 O 0.25054 0.63967 0.25085 0.0
C87 C 0.4823 0.72441 0.29776 0.0
O88 O 0.44969 0.68932 0.42172 0.0
O89 O 0.4422 0.69821 0.52689 0.0
O90 O 0.24293 0.49601 0.53255 0.0
O91 O 0.23765 0.474 0.42807 0.0
O92 O 0.43744 0.70811 0.25086 0.0
O93 O 0.44806 0.68915 0.35305 0.0
O94 O 0.2376 0.47257 0.35945 0.0
O95 O 0.25613 0.49673 0.25452 0.0
C96 C 0.22649 0.44644 0.30143 0.0
O97 O 0.27227 0.65904 0.42368 0.0
O98 O 0.27337 0.66191 0.53032 0.0
C99 C 0.23306 0.65 0.30381 0.0
C100 C 0.26023 0.67718 0.47717 0.0
Zn101 Zn 0.59985 0.3231 1.02273 0.0
Zn102 Zn 0.58605 0.3163 0.76862 0.0
Zn103 Zn 0.58434 0.32542 0.89656 0.0
C104 C 0.69191 0.48756 0.80238 0.0
C105 C 0.41796 0.21814 0.80959 0.0
O106 O 0.63956 0.28087 0.92739 0.0
O107 O 0.64556 0.27835 1.03374 0.0
C108 C 0.69768 0.4923 0.98505 0.0
O109 O 0.66572 0.45667 0.85976 0.0
O110 O 0.66789 0.43987 0.75516 0.0
O111 O 0.46267 0.24047 0.76083 0.0
O112 O 0.4512 0.24307 0.86644 0.0
O113 O 0.67882 0.44719 1.03295 0.0
O114 O 0.66804 0.45876 0.92863 0.0
O115 O 0.45473 0.24338 0.93597 0.0
O116 O 0.47824 0.24436 1.03972 0.0
C117 C 0.42759 0.21901 0.99433 0.0
O118 O 0.62725 0.27059 0.86088 0.0
O119 O 0.62707 0.26747 0.75424 0.0
C120 C 0.65888 0.26673 0.9792 0.0
C121 C 0.63968 0.25234 0.80775 0.0
C122 C 0.19194 0.77636 0.26582 0.0
C123 C 0.1221 0.73717 0.30509 0.0
H124 H 0.28098 0.77849 0.23455 0.0
C125 C 0.08591 0.66554 0.34171 0.0
H126 H 0.2201 0.83043 0.236 0.0
C127 C 0.12149 0.63636 0.34124 0.0
C128 C 0.19276 0.67752 0.30337 0.0
H129 H 0.03228 0.63415 0.37261 0.0
H130 H 0.09414 0.58252 0.37101 0.0
C131 C 0.22645 0.74639 0.26461 0.0
C132 C 0.2019 0.04437 0.73593 0.0
C133 C 0.16665 0.07289 0.74752 0.0
H134 H 0.30849 0.06696 0.74933 0.0
C135 C 0.21048 0.1442 0.78714 0.0
H136 H 0.16937 -0.01033 0.70536 0.0
C137 C 0.29121 0.18966 0.81109 0.0
C138 C 0.3272 0.1621 0.79812 0.0
H139 H 0.18517 0.16827 0.79563 0.0
H140 H 0.32766 0.24928 0.83584 0.0
C141 C 0.28111 0.08822 0.76133 0.0
C142 C 0.16492 0.26746 0.2109 0.0
C143 C 0.09143 0.19509 0.24264 0.0
H144 H 0.26578 0.40276 0.20607 0.0
C145 C 0.06605 0.20525 0.29873 0.0
H146 H 0.18648 0.26156 0.16798 0.0
C147 C 0.1112 0.28725 0.3202 0.0
C148 C 0.18305 0.35946 0.28659 0.0
H149 H 0.00908 0.15019 0.32374 0.0
H150 H 0.08778 0.29405 0.36091 0.0
C151 C 0.21029 0.3484 0.23275 0.0
C152 C 0.64673 0.09549 0.82606 0.0
C153 C 0.72785 0.14238 0.802 0.0
H154 H 0.55598 0.09469 0.84791 0.0
C155 C 0.78051 0.22734 0.78289 0.0
H156 H 0.60373 0.02982 0.84066 0.0
C157 C 0.75176 0.26307 0.7853 0.0
C158 C 0.67092 0.21574 0.80878 0.0
H159 H 0.84429 0.26677 0.76615 0.0
H160 H 0.79291 0.32799 0.76916 0.0
C161 C 0.6189 0.1322 0.82995 0.0
C162 C 0.68866 0.79602 0.28318 0.0
C163 C 0.73212 0.86276 0.23822 0.0
H164 H 0.57462 0.69944 0.3372 0.0
C165 C 0.69683 0.89015 0.22007 0.0
H166 H 0.71411 0.77346 0.29844 0.0
C167 C 0.6176 0.84832 0.24313 0.0
C168 C 0.5725 0.77909 0.28552 0.0
H169 H 0.72864 0.94162 0.18599 0.0
H170 H 0.58998 0.86801 0.2258 0.0
C171 C 0.60946 0.75449 0.30649 0.0
C172 C 0.7744 0.70006 0.78196 0.0
C173 C 0.83938 0.73933 0.73672 0.0
H174 H 0.67619 0.58849 0.83855 0.0
C175 C 0.86207 0.69932 0.72079 0.0
H176 H 0.75552 0.72931 0.79556 0.0
C177 C 0.8173 0.61954 0.74619 0.0
C178 C 0.74971 0.57852 0.78868 0.0
H179 H 0.91201 0.72777 0.68655 0.0
H180 H 0.83321 0.5881 0.73046 0.0
C181 C 0.72983 0.62015 0.80764 0.0
C182 C 0.23667 0.81956 0.44278 0.0
C183 C 0.16497 0.78017 0.47974 0.0
H184 H 0.32199 0.81602 0.41169 0.0
C185 C 0.12689 0.70834 0.51681 0.0
H186 H 0.26707 0.87474 0.41351 0.0
C187 C 0.15865 0.6756 0.51608 0.0
C188 C 0.22812 0.71302 0.47743 0.0
H189 H 0.07263 0.67759 0.5467 0.0
H190 H 0.128 0.62003 0.54498 0.0
C191 C 0.26759 0.78572 0.44123 0.0
C192 C 0.22507 0.06425 1.0894 0.0
C193 C 0.1759 0.07081 1.05915 0.0
H194 H 0.34189 0.10395 1.0911 0.0
C195 C 0.20694 0.12063 1.00311 0.0
H196 H 0.20268 0.02587 1.13233 0.0
C197 C 0.28779 0.16667 0.98 0.0
C198 C 0.33779 0.16197 1.01145 0.0
H199 H 0.17083 0.12772 0.9792 0.0
H200 H 0.31335 0.21005 0.94043 0.0
C201 C 0.30478 0.10891 1.06565 0.0
C202 C 0.06093 0.24145 0.57937 0.0
C203 C 0.07008 0.19352 0.55161 0.0
H204 H 0.09821 0.35743 0.57886 0.0
C205 C 0.12181 0.22579 0.497 0.0
H206 H 0.02062 0.21796 0.62079 0.0
C207 C 0.16738 0.30697 0.47311 0.0
C208 C 0.16018 0.35575 0.50273 0.0
H209 H 0.13004 0.19011 0.47465 0.0
H210 H 0.21089 0.333 0.43361 0.0
C211 C 0.10516 0.32129 0.55513 0.0
C212 C 0.68693 0.12732 1.00125 0.0
C213 C 0.77145 0.18142 0.98181 0.0
H214 H 0.58574 0.11284 1.01615 0.0
C215 C 0.8163 0.26221 0.95687 0.0
H216 H 0.64899 0.06358 1.01849 0.0
C217 C 0.77839 0.28885 0.95342 0.0
C218 C 0.69561 0.23577 0.97564 0.0
H219 H 0.88143 0.306 0.94168 0.0
H220 H 0.81459 0.3519 0.93538 0.0
C221 C 0.65 0.1548 0.99918 0.0
C222 C 0.70395 0.89273 0.54605 0.0
C223 C 0.73577 0.86016 0.53694 0.0
H224 H 0.59923 0.87318 0.53279 0.0
C225 C 0.68899 0.78677 0.49892 0.0
H226 H 0.73845 -0.05059 0.5746 0.0
C227 C 0.60927 0.74357 0.47455 0.0
C228 C 0.57585 0.77374 0.48715 0.0
H229 H 0.71169 0.76003 0.49097 0.0
H230 H 0.5713 0.68342 0.45014 0.0
C231 C 0.62456 0.8496 0.52172 0.0
C232 C 0.86909 0.70756 1.06121 0.0
C233 C 0.84176 0.74404 1.04795 0.0
H234 H 0.84531 0.59968 1.05012 0.0
C235 C 0.7728 0.7014 1.00551 0.0
H236 H 0.92237 0.7387 1.09307 0.0
C237 C 0.72887 0.62139 0.98041 0.0
C238 C 0.75377 0.58339 0.99693 0.0
H239 H 0.75008 0.72768 0.99426 0.0
H240 H 0.6721 0.58678 0.95209 0.0
C241 C 0.82538 0.62811 1.03623 0.0
loop_
_geom_bond_atom_site_label_1
_geom_bond_atom_site_label_2
_geom_bond_distance
_geom_bond_site_symmetry_2
_ccdc_geom_bond_type
Dy0 O3 2.307 1_565 S
Dy0 O5 2.395 . S
Dy0 O6 2.379 . S
Dy0 O8 2.339 1_455 S
Dy0 O10 2.298 1_454 S
Dy0 O14 2.275 1_564 S
Dy0 C22 2.738 . S
Dy1 O4 2.298 1_656 S
Dy1 O7 2.275 1_546 S
Dy1 O9 2.307 1_545 S
Dy1 O11 2.395 . S
Dy1 O12 2.379 . S
Dy1 O15 2.339 1_655 S
Dy1 C31 2.738 . S
C2 O14 1.254 . S
C2 O15 1.257 . S
O3 Dy0 2.307 1_545 S
O3 C13 1.266 . S
O4 Dy1 2.298 1_454 S
O4 C13 1.236 . S
O5 Dy0 2.395 . S
O5 C22 1.255 . S
O6 Dy0 2.379 . S
O6 C22 1.249 . S
O7 Dy1 2.275 1_564 S
O7 C23 1.254 . S
O8 Dy0 2.339 1_655 S
O8 C23 1.257 . S
O9 Dy1 2.307 1_565 S
O9 C24 1.266 . S
O10 Dy0 2.298 1_656 S
O10 C24 1.236 . S
O11 Dy1 2.395 . S
O11 C31 1.255 . S
O12 Dy1 2.379 . S
O12 C31 1.249 . S
C13 O3 1.266 . S
C13 O4 1.236 . S
O14 Dy0 2.275 1_546 S
O14 C2 1.254 . S
O15 Dy1 2.339 1_455 S
O15 C2 1.257 . S
C16 C19 1.344 . S
C16 C20 1.328 . S
C16 C22 1.516 . S
C17 C18 1.304 . S
C17 C21 1.323 . S
C18 C17 1.304 . S
C18 C19 1.371 . S
C18 H32 0.930 . S
C19 C16 1.344 . S
C19 C18 1.371 . S
C19 H33 0.931 . S
C20 C16 1.328 . S
C20 C21 1.433 . S
C20 H34 0.931 . S
C21 C17 1.323 . S
C21 C20 1.433 . S
C21 H35 0.933 . S
C22 Dy0 2.738 . S
C22 O5 1.255 . S
C22 O6 1.249 . S
C22 C16 1.516 . S
C23 O7 1.254 . S
C23 O8 1.257 . S
C24 O9 1.266 . S
C24 O10 1.236 . S
C25 C28 1.344 . S
C25 C29 1.328 . S
C25 C31 1.516 . S
C26 C27 1.304 . S
C26 C30 1.323 . S
C27 C26 1.304 . S
C27 C28 1.371 . S
C27 H36 0.930 . S
C28 C25 1.344 . S
C28 C27 1.371 . S
C28 H37 0.931 . S
C29 C25 1.328 . S
C29 C30 1.433 . S
C29 H38 0.931 . S
C30 C26 1.323 . S
C30 C29 1.433 . S
C30 H39 0.933 . S
C31 Dy1 2.738 . S
C31 O11 1.255 . S
C31 O12 1.249 . S
C31 C25 1.516 . S
H32 C18 0.930 . S
H33 C19 0.931 . S
H34 C20 0.931 . S
H35 C21 0.933 . S
H36 C27 0.930 . S
H37 C28 0.931 . S
H38 C29 0.931 . S
H39 C30 0.933 . S
Dy40 O43 2.307 1_455 S
Dy40 O45 2.395 . S
Dy40 O46 2.379 1_565 S
Dy40 O48 2.339 1_565 S
Dy40 O50 2.298 1_565 S
Dy40 O54 2.275 1_455 S
Dy40 C62 2.738 . S
Dy41 O44 2.298 1_445 S
Dy41 O47 2.275 . S
Dy41 O49 2.307 . S
Dy41 O51 2.395 1_455 S
Dy41 O52 2.379 1_455 S
Dy41 O55 2.339 1_445 S
Dy41 C71 2.738 1_455 S
C42 O54 1.254 . S
C42 O55 1.257 . S
O43 Dy40 2.307 1_655 S
O43 C53 1.266 . S
O44 Dy41 2.298 1_665 S
O44 C53 1.236 . S
O45 Dy40 2.395 . S
O45 C62 1.255 . S
O46 Dy40 2.379 1_545 S
O46 C62 1.249 1_545 S
O47 Dy41 2.275 . S
O47 C63 1.254 . S
O48 Dy40 2.339 1_545 S
O48 C63 1.257 . S
O49 Dy41 2.307 . S
O49 C64 1.266 . S
O50 Dy40 2.298 1_545 S
O50 C64 1.236 . S
O51 Dy41 2.395 1_655 S
O51 C71 1.255 . S
O52 Dy41 2.379 1_655 S
O52 C71 1.249 . S
C53 O43 1.266 . S
C53 O44 1.236 . S
O54 Dy40 2.275 1_655 S
O54 C42 1.254 . S
O55 Dy41 2.339 1_665 S
O55 C42 1.257 . S
C56 C59 1.344 . S
C56 C60 1.328 . S
C56 C62 1.516 . S
C57 C58 1.304 . S
C57 C61 1.323 . S
C58 C57 1.304 . S
C58 C59 1.371 . S
C58 H72 0.930 . S
C59 C56 1.344 . S
C59 C58 1.371 . S
C59 H73 0.931 . S
C60 C56 1.328 . S
C60 C61 1.433 . S
C60 H74 0.931 1_565 S
C61 C57 1.323 . S
C61 C60 1.433 . S
C61 H75 0.933 . S
C62 Dy40 2.738 . S
C62 O45 1.255 . S
C62 O46 1.249 1_565 S
C62 C56 1.516 . S
C63 O47 1.254 . S
C63 O48 1.257 . S
C64 O49 1.266 . S
C64 O50 1.236 . S
C65 C68 1.344 . S
C65 C69 1.328 . S
C65 C71 1.516 . S
C66 C67 1.304 . S
C66 C70 1.323 . S
C67 C66 1.304 . S
C67 C68 1.371 . S
C67 H76 0.930 . S
C68 C65 1.344 . S
C68 C67 1.371 . S
C68 H77 0.931 . S
C69 C65 1.328 . S
C69 C70 1.433 . S
C69 H78 0.931 . S
C70 C66 1.323 . S
C70 C69 1.433 . S
C70 H79 0.933 . S
C71 Dy41 2.738 1_655 S
C71 O51 1.255 . S
C71 O52 1.249 . S
C71 C65 1.516 . S
H72 C58 0.930 . S
H73 C59 0.931 . S
H74 C60 0.931 1_545 S
H75 C61 0.933 . S
H76 C67 0.930 . S
H77 C68 0.931 . S
H78 C69 0.931 . S
H79 C70 0.933 . S
Zn80 O86 1.920 . S
Zn80 O92 1.898 . S
Zn80 O95 1.905 . S
Zn81 O89 1.905 . S
Zn81 O90 1.898 . S
Zn81 O98 1.920 . S
Zn82 O85 2.080 . S
Zn82 O88 2.114 . S
Zn82 O91 2.120 . S
Zn82 O93 2.120 . S
Zn82 O94 2.114 . S
Zn82 O97 2.080 . S
C83 O88 1.166 . S
C83 O89 1.182 . S
C84 O90 1.167 . S
C84 O91 1.299 . S
O85 Zn82 2.080 . S
O85 C99 1.305 . S
O86 Zn80 1.920 . S
O86 C99 1.234 . S
C87 O92 1.167 . S
C87 O93 1.299 . S
O88 Zn82 2.114 . S
O88 C83 1.166 . S
O89 Zn81 1.905 . S
O89 C83 1.182 . S
O90 Zn81 1.898 . S
O90 C84 1.167 . S
O91 Zn82 2.120 . S
O91 C84 1.299 . S
O92 Zn80 1.898 . S
O92 C87 1.167 . S
O93 Zn82 2.120 . S
O93 C87 1.299 . S
O94 Zn82 2.114 . S
O94 C96 1.166 . S
O95 Zn80 1.905 . S
O95 C96 1.182 . S
C96 O94 1.166 . S
C96 O95 1.182 . S
O97 Zn82 2.080 . S
O97 C100 1.305 . S
O98 Zn81 1.920 . S
O98 C100 1.234 . S
C99 O85 1.305 . S
C99 O86 1.234 . S
C100 O97 1.305 . S
C100 O98 1.234 . S
Zn101 O107 1.920 . S
Zn101 O113 1.898 . S
Zn101 O116 1.905 . S
Zn102 O110 1.905 . S
Zn102 O111 1.898 . S
Zn102 O119 1.920 . S
Zn103 O106 2.080 . S
Zn103 O109 2.114 . S
Zn103 O112 2.120 . S
Zn103 O114 2.120 . S
Zn103 O115 2.114 . S
Zn103 O118 2.080 . S
C104 O109 1.166 . S
C104 O110 1.182 . S
C105 O111 1.167 . S
C105 O112 1.299 . S
O106 Zn103 2.080 . S
O106 C120 1.305 . S
O107 Zn101 1.920 . S
O107 C120 1.234 . S
C108 O113 1.167 . S
C108 O114 1.299 . S
O109 Zn103 2.114 . S
O109 C104 1.166 . S
O110 Zn102 1.905 . S
O110 C104 1.182 . S
O111 Zn102 1.898 . S
O111 C105 1.167 . S
O112 Zn103 2.120 . S
O112 C105 1.299 . S
O113 Zn101 1.898 . S
O113 C108 1.167 . S
O114 Zn103 2.120 . S
O114 C108 1.299 . S
O115 Zn103 2.114 . S
O115 C117 1.166 . S
O116 Zn101 1.905 . S
O116 C117 1.182 . S
C117 O115 1.166 . S
C117 O116 1.182 . S
O118 Zn103 2.080 . S
O118 C121 1.305 . S
O119 Zn102 1.920 . S
O119 C121 1.234 . S
C120 O106 1.305 . S
C120 O107 1.234 . S
C121 O118 1.305 . S
C121 O119 1.234 . S
C122 C123 1.387 . S
C122 H126 0.950 . S
C122 C131 1.390 . S
C123 C122 1.387 . S
C123 C125 1.387 . S
H124 C131 0.950 . S
C125 C123 1.387 . S
C125 C127 1.390 . S
C125 H129 0.950 . S
H126 C122 0.950 . S
C127 C125 1.390 . S
C127 C128 1.387 . S
C127 H130 0.950 . S
C128 C127 1.387 . S
C128 C131 1.387 . S
H129 C125 0.950 . S
H130 C127 0.950 . S
C131 C122 1.390 . S
C131 H124 0.950 . S
C131 C128 1.387 . S
C132 C133 1.387 . S
C132 H136 0.950 . S
C132 C141 1.390 . S
C133 C132 1.387 . S
C133 C135 1.387 . S
H134 C141 0.950 . S
C135 C133 1.387 . S
C135 C137 1.390 . S
C135 H139 0.950 . S
H136 C132 0.950 . S
C137 C135 1.390 . S
C137 C138 1.387 . S
C137 H140 0.950 . S
C138 C137 1.387 . S
C138 C141 1.387 . S
H139 C135 0.950 . S
H140 C137 0.950 . S
C141 C132 1.390 . S
C141 H134 0.950 . S
C141 C138 1.387 . S
C142 C143 1.387 . S
C142 H146 0.950 . S
C142 C151 1.390 . S
C143 C142 1.387 . S
C143 C145 1.387 . S
H144 C151 0.950 . S
C145 C143 1.387 . S
C145 C147 1.390 . S
C145 H149 0.950 . S
H146 C142 0.950 . S
C147 C145 1.390 . S
C147 C148 1.387 . S
C147 H150 0.950 . S
C148 C147 1.387 . S
C148 C151 1.387 . S
H149 C145 0.950 . S
H150 C147 0.950 . S
C151 C142 1.390 . S
C151 H144 0.950 . S
C151 C148 1.387 . S
C152 C153 1.387 . S
C152 H156 0.950 . S
C152 C161 1.390 . S
C153 C152 1.387 . S
C153 C155 1.387 . S
H154 C161 0.950 . S
C155 C153 1.387 . S
C155 C157 1.390 . S
C155 H159 0.950 . S
H156 C152 0.950 . S
C157 C155 1.390 . S
C157 C158 1.387 . S
C157 H160 0.950 . S
C158 C157 1.387 . S
C158 C161 1.387 . S
H159 C155 0.950 . S
H160 C157 0.950 . S
C161 C152 1.390 . S
C161 H154 0.950 . S
C161 C158 1.387 . S
C162 C163 1.387 . S
C162 H166 0.950 . S
C162 C171 1.390 . S
C163 C162 1.387 . S
C163 C165 1.387 . S
H164 C171 0.950 . S
C165 C163 1.387 . S
C165 C167 1.390 . S
C165 H169 0.950 1_565 S
H166 C162 0.950 . S
C167 C165 1.390 . S
C167 C168 1.387 . S
C167 H170 0.950 . S
C168 C167 1.387 . S
C168 C171 1.387 . S
H169 C165 0.950 1_545 S
H170 C167 0.950 . S
C171 C162 1.390 . S
C171 H164 0.950 . S
C171 C168 1.387 . S
C172 C173 1.387 . S
C172 H176 0.950 . S
C172 C181 1.390 . S
C173 C172 1.387 . S
C173 C175 1.387 . S
H174 C181 0.950 . S
C175 C173 1.387 . S
C175 C177 1.390 . S
C175 H179 0.950 . S
H176 C172 0.950 . S
C177 C175 1.390 . S
C177 C178 1.387 . S
C177 H180 0.950 . S
C178 C177 1.387 . S
C178 C181 1.387 . S
H179 C175 0.950 . S
H180 C177 0.950 . S
C181 C172 1.390 . S
C181 H174 0.950 . S
C181 C178 1.387 . S
C182 C183 1.387 . S
C182 H186 0.950 . S
C182 C191 1.390 . S
C183 C182 1.387 . S
C183 C185 1.387 . S
H184 C191 0.950 . S
C185 C183 1.387 . S
C185 C187 1.390 . S
C185 H189 0.950 . S
H186 C182 0.950 . S
C187 C185 1.390 . S
C187 C188 1.387 . S
C187 H190 0.950 . S
C188 C187 1.387 . S
C188 C191 1.387 . S
H189 C185 0.950 . S
H190 C187 0.950 . S
C191 C182 1.390 . S
C191 H184 0.950 . S
C191 C188 1.387 . S
C192 C193 1.387 . S
C192 H196 0.950 . S
C192 C201 1.390 . S
C193 C192 1.387 . S
C193 C195 1.387 . S
H194 C201 0.950 . S
C195 C193 1.387 . S
C195 C197 1.390 . S
C195 H199 0.950 . S
H196 C192 0.950 . S
C197 C195 1.390 . S
C197 C198 1.387 . S
C197 H200 0.950 . S
C198 C197 1.387 . S
C198 C201 1.387 . S
H199 C195 0.950 . S
H200 C197 0.950 . S
C201 C192 1.390 . S
C201 H194 0.950 . S
C201 C198 1.387 . S
C202 C203 1.387 . S
C202 H206 0.950 . S
C202 C211 1.390 . S
C203 C202 1.387 . S
C203 C205 1.387 . S
H204 C211 0.950 . S
C205 C203 1.387 . S
C205 C207 1.390 . S
C205 H209 0.950 . S
H206 C202 0.950 . S
C207 C205 1.390 . S
C207 C208 1.387 . S
C207 H210 0.950 . S
C208 C207 1.387 . S
C208 C211 1.387 . S
H209 C205 0.950 . S
H210 C207 0.950 . S
C211 C202 1.390 . S
C211 H204 0.950 . S
C211 C208 1.387 . S
C212 C213 1.387 . S
C212 H216 0.950 . S
C212 C221 1.390 . S
C213 C212 1.387 . S
C213 C215 1.387 . S
H214 C221 0.950 . S
C215 C213 1.387 . S
C215 C217 1.390 . S
C215 H219 0.950 . S
H216 C212 0.950 . S
C217 C215 1.390 . S
C217 C218 1.387 . S
C217 H220 0.950 . S
C218 C217 1.387 . S
C218 C221 1.387 . S
H219 C215 0.950 . S
H220 C217 0.950 . S
C221 C212 1.390 . S
C221 H214 0.950 . S
C221 C218 1.387 . S
C222 C223 1.387 . S
C222 H226 0.950 . S
C222 C231 1.390 . S
C223 C222 1.387 . S
C223 C225 1.387 . S
H224 C231 0.950 . S
C225 C223 1.387 . S
C225 C227 1.390 . S
C225 H229 0.950 . S
H226 C222 0.950 . S
C227 C225 1.390 . S
C227 C228 1.387 . S
C227 H230 0.950 . S
C228 C227 1.387 . S
C228 C231 1.387 . S
H229 C225 0.950 . S
H230 C227 0.950 . S
C231 C222 1.390 . S
C231 H224 0.950 . S
C231 C228 1.387 . S
C232 C233 1.387 . S
C232 H236 0.950 . S
C232 C241 1.390 . S
C233 C232 1.387 . S
C233 C235 1.387 . S
H234 C241 0.950 . S
C235 C233 1.387 . S
C235 C237 1.390 . S
C235 H239 0.950 . S
H236 C232 0.950 . S
C237 C235 1.390 . S
C237 C238 1.387 . S
C237 H240 0.950 . S
C238 C237 1.387 . S
C238 C241 1.387 . S
H239 C235 0.950 . S
H240 C237 0.950 . S
C241 C232 1.390 . S
C241 H234 0.950 . S
C241 C238 1.387 . S
C123 C17 1.365 . S
C128 C99 1.272 . S
C133 C64 1.452 . S
C138 C105 1.250 . S
C143 C13 1.532 . S
C148 C96 1.364 . S
C153 C66 1.475 . S
C158 C121 1.361 . S
C163 C23 1.807 . S
C168 C87 1.598 . S
C178 C104 1.684 . S
C173 C42 1.828 . S
C183 C57 1.364 . S
C188 C100 1.275 . S
C198 C117 1.683 . S
C193 C2 1.826 . S
C208 C84 1.597 . S
C203 C63 1.807 . S
C218 C120 1.357 . S
C213 C26 1.474 . S
C228 C83 1.370 . S
C223 C53 1.534 . S
C238 C108 1.251 . S
C233 C24 1.452 . S
