# Generated by pormake.
# Topology bcu-b, (8,8)-cn, num edge types: 1
# Building blocks:
#     Node 0, Type 0, BuildingBlock: TAGTUT_clean_sbu_3, # of connection points: 8
#     Node 1, Type 1, BuildingBlock: TAGTUT_clean_sbu_3, # of connection points: 8
#     Edge 2, Type (0, 1), BuildingBlock: FUNLAD_clean_linker_0, # of connection points: 2
#     Edge 3, Type (0, 1), BuildingBlock: FUNLAD_clean_linker_0, # of connection points: 2
#     Edge 4, Type (0, 1), BuildingBlock: FUNLAD_clean_linker_0, # of connection points: 2
#     Edge 5, Type (0, 1), BuildingBlock: FUNLAD_clean_linker_0, # of connection points: 2
#     Edge 6, Type (0, 1), BuildingBlock: FUNLAD_clean_linker_0, # of connection points: 2
#     Edge 7, Type (0, 1), BuildingBlock: FUNLAD_clean_linker_0, # of connection points: 2
#     Edge 8, Type (0, 1), BuildingBlock: FUNLAD_clean_linker_0, # of connection points: 2
#     Edge 9, Type (0, 1), BuildingBlock: FUNLAD_clean_linker_0, # of connection points: 2
# Relax obj value: 0.014
# Max RMSD: 0.066
# Mean RMSD: 0.066
data_MOF--net-bcu-b--node1-TAGTUT_clean_sbu_3--node2-TAGTUT_clean_sbu_3--edge1-FUNLAD_clean_linker_0
_symmetry_space_group_name_H-M    P1
_symmetry_Int_Tables_number       1
_symmetry_cell_setting            triclinic
loop_
_symmetry_equiv_pos_as_xyz
'x, y, z'
_cell_length_a     21.828316
_cell_length_b     21.787076
_cell_length_c     25.530622
_cell_angle_alpha  90.410709
_cell_angle_beta   89.900541
_cell_angle_gamma 104.87641
loop_
_atom_site_label
_atom_site_type_symbol
_atom_site_fract_x
_atom_site_fract_y
_atom_site_fract_z
_atom_type_partial_charge
C0 C 0.1294 0.09652 0.01812 0.0
C1 C 0.18941 0.88732 0.0171 0.0
C2 C 0.11341 0.86047 0.85775 0.0
Mg3 Mg 0.01392 0.14019 -0.03458 0.0
Mg4 Mg 0.87883 0.03785 0.93864 0.0
O5 O 0.9667 0.06003 0.92918 0.0
Mg6 Mg 0.01886 0.00115 0.94998 0.0
O7 O 0.07758 0.94901 -0.0296 0.0
Mg8 Mg 0.15769 0.994 0.93359 0.0
Mg9 Mg 0.05558 0.86049 -0.03345 0.0
C10 C 0.89916 0.91357 0.8825 0.0
O11 O 0.94758 0.9449 0.01054 0.0
O12 O 0.95305 0.19127 0.91402 0.0
O13 O 0.96264 0.84632 0.0014 0.0
O14 O 0.94105 0.12975 0.03276 0.0
O15 O 0.86252 0.11704 0.89629 0.0
O16 O 0.85625 0.04912 0.01925 0.0
O17 O 0.09402 0.04817 0.88956 0.0
O18 O 0.08582 0.14769 0.90005 0.0
C19 C 0.11107 0.10722 0.87807 0.0
C20 C 0.89842 0.17342 0.89169 0.0
O21 O 0.95944 0.92844 0.89102 0.0
O22 O 0.20913 0.93678 -0.01166 0.0
O23 O 0.86204 0.94548 0.90132 0.0
O24 O 0.14623 0.91646 0.86932 0.0
O25 O 0.13246 0.85238 0.01539 0.0
O26 O 0.07049 0.82963 0.88847 0.0
O27 O 0.06984 0.07821 0.00876 0.0
O28 O 0.16876 0.07042 -0.00417 0.0
C29 C 0.88774 0.09449 0.04782 0.0
C30 C 0.93162 0.88468 0.0194 0.0
C31 C 0.62499 0.59456 0.51759 0.0
C32 C 0.69802 0.38757 0.5093 0.0
C33 C 0.61217 0.36266 0.35442 0.0
Mg34 Mg 0.50371 0.63113 0.46696 0.0
Mg35 Mg 0.37276 0.52177 0.44294 0.0
O36 O 0.45996 0.54963 0.43077 0.0
Mg37 Mg 0.51714 0.49528 0.45016 0.0
O38 O 0.57984 0.44748 0.47027 0.0
Mg39 Mg 0.65702 0.49541 0.43132 0.0
Mg40 Mg 0.56043 0.35925 0.46466 0.0
C41 C 0.39878 0.39996 0.38708 0.0
O42 O 0.4494 0.43731 0.51148 0.0
O43 O 0.43722 0.67663 0.41741 0.0
O44 O 0.46904 0.34074 0.50263 0.0
O45 O 0.4322 0.61772 0.53584 0.0
O46 O 0.35012 0.59767 0.4002 0.0
O47 O 0.35139 0.53276 0.5239 0.0
O48 O 0.58893 0.54576 0.38796 0.0
O49 O 0.57275 0.64218 0.39947 0.0
C50 C 0.60013 0.60462 0.37577 0.0
C51 C 0.38282 0.65536 0.39537 0.0
O52 O 0.45948 0.4194 0.39237 0.0
O53 O 0.71325 0.44024 0.4839 0.0
O54 O 0.35992 0.42876 0.40749 0.0
O55 O 0.64665 0.41783 0.36662 0.0
O56 O 0.64229 0.34985 0.50701 0.0
O57 O 0.56875 0.33239 0.38489 0.0
O58 O 0.56561 0.57374 0.50825 0.0
O59 O 0.66577 0.57088 0.49452 0.0
C60 C 0.38059 0.57997 0.55171 0.0
C61 C 0.43617 0.37732 0.52072 0.0
C62 C 0.12733 0.14438 0.10697 0.0
C63 C 0.15517 0.14604 0.05729 0.0
C64 C 0.16108 0.1806 0.14813 0.0
C65 C 0.2227 0.21936 0.13969 0.0
C66 C 0.24772 0.225 0.08887 0.0
C67 C 0.21464 0.18811 0.04818 0.0
C68 C 0.26314 0.25334 0.18276 0.0
C69 C 0.26051 0.23094 0.23191 0.0
C70 C 0.30165 0.266 0.27412 0.0
C71 C 0.27595 0.2675 0.32425 0.0
C72 C 0.31 0.30788 0.3627 0.0
C73 C 0.37095 0.34626 0.35197 0.0
H74 H 0.38654 0.29823 0.22684 0.0
C75 C 0.39933 0.33995 0.30358 0.0
C76 C 0.36471 0.30033 0.2647 0.0
H77 H 0.44633 0.36894 0.29448 0.0
H78 H 0.08156 0.11207 0.11483 0.0
H79 H 0.13951 0.17702 0.18657 0.0
H80 H 0.29455 0.25535 0.0812 0.0
H81 H 0.23689 0.19023 0.01002 0.0
H82 H 0.29843 0.29679 0.17289 0.0
H83 H 0.22518 0.18781 0.24237 0.0
H84 H 0.22794 0.24054 0.33268 0.0
H85 H 0.2874 0.31155 0.4 0.0
C86 C 0.79232 0.09048 0.10388 0.0
C87 C 0.85782 0.11373 0.09517 0.0
C88 C 0.76157 0.11896 0.14145 0.0
C89 C 0.79591 0.1712 0.17113 0.0
C90 C 0.86205 0.1906 0.16547 0.0
C91 C 0.89267 0.16245 0.1278 0.0
C92 C 0.76515 0.20864 0.20675 0.0
C93 C 0.70373 0.20966 0.20382 0.0
C94 C 0.6774 0.2525 0.23745 0.0
C95 C 0.61584 0.23123 0.25762 0.0
C96 C 0.59262 0.26874 0.29339 0.0
C97 C 0.63026 0.32876 0.30879 0.0
H98 H 0.75996 0.33296 0.23336 0.0
C99 C 0.68984 0.35201 0.28509 0.0
C100 C 0.71326 0.3142 0.24996 0.0
H101 H 0.71995 0.39817 0.29564 0.0
H102 H 0.76411 0.05252 0.07981 0.0
H103 H 0.71092 0.10074 0.14604 0.0
H104 H 0.88992 0.22988 0.18848 0.0
H105 H 0.94332 0.18103 0.12263 0.0
H106 H 0.79567 0.23973 0.23491 0.0
H107 H 0.67149 0.17835 0.17706 0.0
H108 H 0.58684 0.18433 0.24765 0.0
H109 H 0.54627 0.24963 0.31054 0.0
C110 C 0.85116 0.79177 0.05448 0.0
C111 C 0.87862 0.85762 0.05512 0.0
C112 C 0.80885 0.76347 0.09346 0.0
C113 C 0.7936 0.80043 0.13433 0.0
C114 C 0.81734 0.8668 0.13284 0.0
C115 C 0.85962 0.89529 0.09354 0.0
C116 C 0.75352 0.77133 0.17908 0.0
C117 C 0.74778 0.71106 0.19488 0.0
C118 C 0.70871 0.68268 0.24052 0.0
C119 C 0.65922 0.70726 0.25914 0.0
C120 C 0.62479 0.68148 0.30304 0.0
C121 C 0.63767 0.62949 0.32897 0.0
H122 H 0.7577 0.60879 0.25126 0.0
C123 C 0.68504 0.60269 0.30927 0.0
C124 C 0.7205 0.62935 0.26539 0.0
H125 H 0.69537 0.56215 0.32821 0.0
H126 H 0.86374 0.76165 0.02455 0.0
H127 H 0.78901 0.71261 0.09167 0.0
H128 H 0.80516 0.89648 0.16331 0.0
H129 H 0.87973 0.9462 0.09483 0.0
H130 H 0.73162 0.80239 0.20159 0.0
H131 H 0.77495 0.68218 0.1755 0.0
H132 H 0.64606 0.74599 0.23983 0.0
H133 H 0.5872 0.70209 0.31625 0.0
C134 C 0.20235 0.8771 0.11198 0.0
C135 C 0.22813 0.8773 0.06165 0.0
C136 C 0.2344 0.86302 0.15544 0.0
C137 C 0.29229 0.84662 0.14944 0.0
C138 C 0.31991 0.85034 0.09926 0.0
C139 C 0.2881 0.86592 0.0555 0.0
C140 C 0.32293 0.82319 0.19454 0.0
C141 C 0.28868 0.79291 0.23516 0.0
C142 C 0.31462 0.76238 0.27867 0.0
C143 C 0.2726 0.71354 0.30605 0.0
C144 C 0.2945 0.68066 0.34543 0.0
C145 C 0.35897 0.69644 0.35902 0.0
H146 H 0.4123 0.81878 0.27437 0.0
C147 C 0.40077 0.74753 0.33358 0.0
C148 C 0.37885 0.78016 0.29357 0.0
H149 H 0.45079 0.76073 0.34317 0.0
H150 H 0.1568 0.88747 0.11767 0.0
H151 H 0.21298 0.86429 0.19354 0.0
H152 H 0.365 0.83902 0.09364 0.0
H153 H 0.309 0.86656 0.01693 0.0
H154 H 0.37323 0.82607 0.19191 0.0
H155 H 0.23752 0.78495 0.23465 0.0
H156 H 0.22273 0.69938 0.29591 0.0
H157 H 0.26099 0.64185 0.36449 0.0
C158 C 0.11393 0.76102 0.8075 0.0
C159 C 0.13315 0.82762 0.8121 0.0
C160 C 0.14291 0.72912 0.77108 0.0
C161 C 0.19168 0.76331 0.73836 0.0
C162 C 0.20721 0.82998 0.74034 0.0
C163 C 0.17856 0.86177 0.77683 0.0
C164 C 0.22927 0.73236 0.70288 0.0
C165 C 0.2319 0.67126 0.70611 0.0
C166 C 0.27417 0.64511 0.67165 0.0
C167 C 0.25376 0.58256 0.65268 0.0
C168 C 0.2903 0.55938 0.61605 0.0
C169 C 0.34851 0.59817 0.59843 0.0
H170 H 0.35272 0.72963 0.67265 0.0
C171 C 0.3712 0.65884 0.62098 0.0
C172 C 0.3344 0.68213 0.65703 0.0
H173 H 0.4161 0.68987 0.60888 0.0
H174 H 0.07874 0.7332 0.83381 0.0
H175 H 0.12769 0.67785 0.7697 0.0
H176 H 0.24375 0.85773 0.71507 0.0
H177 H 0.19411 0.91312 0.77885 0.0
H178 H 0.25858 0.76257 0.67384 0.0
H179 H 0.20207 0.63902 0.73343 0.0
H180 H 0.2081 0.55261 0.66427 0.0
H181 H 0.27165 0.51219 0.59991 0.0
C182 C 0.18501 0.19563 0.83187 0.0
C183 C 0.15751 0.13012 0.83623 0.0
C184 C 0.22066 0.21986 0.7881 0.0
C185 C 0.22917 0.17906 0.74751 0.0
C186 C 0.20588 0.11316 0.75353 0.0
C187 C 0.16998 0.08871 0.79762 0.0
C188 C 0.2624 0.20459 0.69887 0.0
C189 C 0.25916 0.26086 0.67904 0.0
C190 C 0.29717 0.29023 0.63359 0.0
C191 C 0.31717 0.35674 0.63073 0.0
C192 C 0.36012 0.38587 0.59219 0.0
C193 C 0.38327 0.34864 0.55588 0.0
H194 H 0.29927 0.20213 0.59402 0.0
C195 C 0.35907 0.28232 0.55622 0.0
C196 C 0.31623 0.25337 0.59455 0.0
H197 H 0.37468 0.25247 0.52774 0.0
H198 H 0.17755 0.22863 0.86168 0.0
H199 H 0.24083 0.27065 0.78596 0.0
H200 H 0.21325 0.08082 0.72314 0.0
H201 H 0.14969 0.03793 0.80024 0.0
H202 H 0.29004 0.17624 0.67942 0.0
H203 H 0.23098 0.28855 0.69875 0.0
H204 H 0.30209 0.38614 0.65993 0.0
H205 H 0.37756 0.43711 0.59257 0.0
C206 C 0.92144 0.25969 0.82411 0.0
C207 C 0.87757 0.21645 0.85516 0.0
C208 C 0.9006 0.29034 0.78209 0.0
C209 C 0.83534 0.27868 0.77095 0.0
C210 C 0.79185 0.23907 0.80465 0.0
C211 C 0.8126 0.20806 0.84593 0.0
C212 C 0.80954 0.30143 0.7229 0.0
C213 C 0.84374 0.33547 0.6839 0.0
C214 C 0.81224 0.34707 0.63467 0.0
C215 C 0.82963 0.40653 0.61014 0.0
C216 C 0.79504 0.4192 0.56699 0.0
C217 C 0.74303 0.37219 0.54747 0.0
H218 H 0.75058 0.25172 0.62926 0.0
C219 C 0.72928 0.31129 0.56966 0.0
C220 C 0.76344 0.29888 0.61259 0.0
H221 H 0.69038 0.27353 0.55512 0.0
H222 H 0.97189 0.26684 0.83024 0.0
H223 H 0.93589 0.32084 0.75759 0.0
H224 H 0.74132 0.2295 0.79757 0.0
H225 H 0.77762 0.17541 0.86943 0.0
H226 H 0.75832 0.28637 0.71817 0.0
H227 H 0.8944 0.35551 0.68769 0.0
H228 H 0.86787 0.44407 0.62589 0.0
H229 H 0.80702 0.46656 0.55074 0.0
C230 C 0.80454 0.83743 0.84419 0.0
C231 C 0.87078 0.86161 0.8456 0.0
C232 C 0.77564 0.79746 0.80357 0.0
C233 C 0.81241 0.78114 0.76318 0.0
C234 C 0.87884 0.80097 0.76686 0.0
C235 C 0.90791 0.84103 0.80772 0.0
C236 C 0.78318 0.74528 0.71607 0.0
C237 C 0.72542 0.7463 0.69781 0.0
C238 C 0.6989 0.71339 0.64877 0.0
C239 C 0.63309 0.6882 0.64386 0.0
C240 C 0.60778 0.65235 0.59957 0.0
C241 C 0.64813 0.64177 0.55949 0.0
H242 H 0.78896 0.7283 0.60808 0.0
C243 C 0.71333 0.67126 0.5628 0.0
C244 C 0.73843 0.70679 0.60683 0.0
H245 H 0.74555 0.66522 0.53201 0.0
H246 H 0.77464 0.85114 0.8736 0.0
H247 H 0.72451 0.78053 0.80361 0.0
H248 H 0.90827 0.78795 0.73672 0.0
H249 H 0.95907 0.85849 0.80795 0.0
H250 H 0.81177 0.71969 0.69437 0.0
H251 H 0.6961 0.77122 0.71925 0.0
H252 H 0.60154 0.69394 0.67527 0.0
H253 H 0.55729 0.63049 0.59796 0.0
loop_
_geom_bond_atom_site_label_1
_geom_bond_atom_site_label_2
_geom_bond_distance
_geom_bond_site_symmetry_2
_ccdc_geom_bond_type
C0 O27 1.312 . S
C0 O28 1.208 . S
C1 O22 1.331 . S
C1 O25 1.244 . S
C2 O24 1.264 . S
C2 O26 1.273 . S
Mg3 O5 1.936 . S
Mg3 O12 2.081 . S
Mg3 O14 2.023 1_556 S
Mg3 O18 2.031 1_655 S
Mg3 O27 2.291 1_656 S
Mg4 O5 1.963 . S
Mg4 O15 1.942 . S
Mg4 O16 1.955 1_556 S
Mg4 O23 1.986 1_545 S
O5 Mg3 1.936 . S
O5 Mg4 1.963 . S
O5 Mg6 1.915 1_546 S
Mg6 O5 1.915 1_564 S
Mg6 O7 1.915 1_655 S
Mg6 O11 2.013 . S
Mg6 O17 2.114 1_664 S
Mg6 O21 2.013 1_554 S
Mg6 O27 2.114 1_665 S
O7 Mg6 1.915 1_455 S
O7 Mg8 1.936 . S
O7 Mg9 1.963 . S
Mg8 O7 1.936 . S
Mg8 O17 2.291 1_564 S
Mg8 O22 2.081 . S
Mg8 O24 2.023 1_554 S
Mg8 O28 2.031 1_565 S
Mg9 O7 1.963 . S
Mg9 O13 1.986 1_455 S
Mg9 O25 1.942 . S
Mg9 O26 1.955 1_554 S
C10 O21 1.191 . S
C10 O23 1.307 . S
O11 Mg6 2.013 . S
O11 C30 1.191 . S
O12 Mg3 2.081 . S
O12 C20 1.331 . S
O13 Mg9 1.986 1_655 S
O13 C30 1.307 . S
O14 Mg3 2.023 1_554 S
O14 C29 1.264 . S
O15 Mg4 1.942 . S
O15 C20 1.244 . S
O16 Mg4 1.955 1_554 S
O16 C29 1.273 . S
O17 Mg6 2.114 1_446 S
O17 Mg8 2.291 1_546 S
O17 C19 1.312 . S
O18 Mg3 2.031 1_455 S
O18 C19 1.208 . S
C19 O17 1.312 . S
C19 O18 1.208 . S
C20 O12 1.331 . S
C20 O15 1.244 . S
O21 Mg6 2.013 1_556 S
O21 C10 1.191 . S
O22 C1 1.331 . S
O22 Mg8 2.081 . S
O23 Mg4 1.986 1_565 S
O23 C10 1.307 . S
O24 C2 1.264 . S
O24 Mg8 2.023 1_556 S
O25 C1 1.244 . S
O25 Mg9 1.942 . S
O26 C2 1.273 . S
O26 Mg9 1.955 1_556 S
O27 C0 1.312 . S
O27 Mg3 2.291 1_454 S
O27 Mg6 2.114 1_445 S
O28 C0 1.208 . S
O28 Mg8 2.031 1_545 S
C29 O14 1.264 . S
C29 O16 1.273 . S
C30 O11 1.191 . S
C30 O13 1.307 . S
C31 O58 1.312 . S
C31 O59 1.208 . S
C32 O53 1.331 . S
C32 O56 1.244 . S
C33 O55 1.264 . S
C33 O57 1.273 . S
Mg34 O36 1.936 . S
Mg34 O43 2.081 . S
Mg34 O45 2.023 . S
Mg34 O49 2.031 . S
Mg34 O58 2.291 . S
Mg35 O36 1.963 . S
Mg35 O46 1.942 . S
Mg35 O47 1.955 . S
Mg35 O54 1.986 . S
O36 Mg34 1.936 . S
O36 Mg35 1.963 . S
O36 Mg37 1.915 . S
Mg37 O36 1.915 . S
Mg37 O38 1.915 . S
Mg37 O42 2.013 . S
Mg37 O48 2.114 . S
Mg37 O52 2.013 . S
Mg37 O58 2.114 . S
O38 Mg37 1.915 . S
O38 Mg39 1.936 . S
O38 Mg40 1.963 . S
Mg39 O38 1.936 . S
Mg39 O48 2.291 . S
Mg39 O53 2.081 . S
Mg39 O55 2.023 . S
Mg39 O59 2.031 . S
Mg40 O38 1.963 . S
Mg40 O44 1.986 . S
Mg40 O56 1.942 . S
Mg40 O57 1.955 . S
C41 O52 1.191 . S
C41 O54 1.307 . S
O42 Mg37 2.013 . S
O42 C61 1.191 . S
O43 Mg34 2.081 . S
O43 C51 1.331 . S
O44 Mg40 1.986 . S
O44 C61 1.307 . S
O45 Mg34 2.023 . S
O45 C60 1.264 . S
O46 Mg35 1.942 . S
O46 C51 1.244 . S
O47 Mg35 1.955 . S
O47 C60 1.273 . S
O48 Mg37 2.114 . S
O48 Mg39 2.291 . S
O48 C50 1.312 . S
O49 Mg34 2.031 . S
O49 C50 1.208 . S
C50 O48 1.312 . S
C50 O49 1.208 . S
C51 O43 1.331 . S
C51 O46 1.244 . S
O52 Mg37 2.013 . S
O52 C41 1.191 . S
O53 C32 1.331 . S
O53 Mg39 2.081 . S
O54 Mg35 1.986 . S
O54 C41 1.307 . S
O55 C33 1.264 . S
O55 Mg39 2.023 . S
O56 C32 1.244 . S
O56 Mg40 1.942 . S
O57 C33 1.273 . S
O57 Mg40 1.955 . S
O58 C31 1.312 . S
O58 Mg34 2.291 . S
O58 Mg37 2.114 . S
O59 C31 1.208 . S
O59 Mg39 2.031 . S
C60 O45 1.264 . S
C60 O47 1.273 . S
C61 O42 1.191 . S
C61 O44 1.307 . S
C62 C63 1.386 . S
C62 C64 1.383 . S
C62 H78 0.951 . S
C63 C62 1.386 . S
C63 C67 1.383 . S
C64 C62 1.383 . S
C64 C65 1.402 . S
C64 H79 0.951 . S
C65 C64 1.402 . S
C65 C66 1.375 . S
C65 C68 1.481 . S
C66 C65 1.375 . S
C66 C67 1.367 . S
C66 H80 0.951 . S
C67 C63 1.383 . S
C67 C66 1.367 . S
C67 H81 0.950 . S
C68 C65 1.481 . S
C68 C69 1.297 . S
C68 H82 0.950 . S
C69 C68 1.297 . S
C69 C70 1.479 . S
C69 H83 0.950 . S
C70 C69 1.479 . S
C70 C71 1.375 . S
C70 C76 1.404 . S
C71 C70 1.375 . S
C71 C72 1.369 . S
C71 H84 0.950 . S
C72 C71 1.369 . S
C72 C73 1.392 . S
C72 H85 0.951 . S
C73 C72 1.392 . S
C73 C75 1.384 . S
H74 C76 0.949 . S
C75 C73 1.384 . S
C75 C76 1.385 . S
C75 H77 0.950 . S
C76 C70 1.404 . S
C76 H74 0.949 . S
C76 C75 1.385 . S
H77 C75 0.950 . S
H78 C62 0.951 . S
H79 C64 0.951 . S
H80 C66 0.951 . S
H81 C67 0.950 . S
H82 C68 0.950 . S
H83 C69 0.950 . S
H84 C71 0.950 . S
H85 C72 0.951 . S
C86 C87 1.386 . S
C86 C88 1.383 . S
C86 H102 0.951 . S
C87 C86 1.386 . S
C87 C91 1.383 . S
C88 C86 1.383 . S
C88 C89 1.402 . S
C88 H103 0.951 . S
C89 C88 1.402 . S
C89 C90 1.375 . S
C89 C92 1.481 . S
C90 C89 1.375 . S
C90 C91 1.367 . S
C90 H104 0.951 . S
C91 C87 1.383 . S
C91 C90 1.367 . S
C91 H105 0.950 . S
C92 C89 1.481 . S
C92 C93 1.297 . S
C92 H106 0.950 . S
C93 C92 1.297 . S
C93 C94 1.479 . S
C93 H107 0.950 . S
C94 C93 1.479 . S
C94 C95 1.375 . S
C94 C100 1.404 . S
C95 C94 1.375 . S
C95 C96 1.369 . S
C95 H108 0.950 . S
C96 C95 1.369 . S
C96 C97 1.392 . S
C96 H109 0.951 . S
C97 C96 1.392 . S
C97 C99 1.384 . S
H98 C100 0.949 . S
C99 C97 1.384 . S
C99 C100 1.385 . S
C99 H101 0.950 . S
C100 C94 1.404 . S
C100 H98 0.949 . S
C100 C99 1.385 . S
H101 C99 0.950 . S
H102 C86 0.951 . S
H103 C88 0.951 . S
H104 C90 0.951 . S
H105 C91 0.950 . S
H106 C92 0.950 . S
H107 C93 0.950 . S
H108 C95 0.950 . S
H109 C96 0.951 . S
C110 C111 1.386 . S
C110 C112 1.383 . S
C110 H126 0.951 . S
C111 C110 1.386 . S
C111 C115 1.383 . S
C112 C110 1.383 . S
C112 C113 1.402 . S
C112 H127 0.951 . S
C113 C112 1.402 . S
C113 C114 1.375 . S
C113 C116 1.481 . S
C114 C113 1.375 . S
C114 C115 1.367 . S
C114 H128 0.951 . S
C115 C111 1.383 . S
C115 C114 1.367 . S
C115 H129 0.950 . S
C116 C113 1.481 . S
C116 C117 1.297 . S
C116 H130 0.950 . S
C117 C116 1.297 . S
C117 C118 1.479 . S
C117 H131 0.950 . S
C118 C117 1.479 . S
C118 C119 1.375 . S
C118 C124 1.404 . S
C119 C118 1.375 . S
C119 C120 1.369 . S
C119 H132 0.950 . S
C120 C119 1.369 . S
C120 C121 1.392 . S
C120 H133 0.951 . S
C121 C120 1.392 . S
C121 C123 1.384 . S
H122 C124 0.949 . S
C123 C121 1.384 . S
C123 C124 1.385 . S
C123 H125 0.950 . S
C124 C118 1.404 . S
C124 H122 0.949 . S
C124 C123 1.385 . S
H125 C123 0.950 . S
H126 C110 0.951 . S
H127 C112 0.951 . S
H128 C114 0.951 . S
H129 C115 0.950 . S
H130 C116 0.950 . S
H131 C117 0.950 . S
H132 C119 0.950 . S
H133 C120 0.951 . S
C134 C135 1.386 . S
C134 C136 1.383 . S
C134 H150 0.951 . S
C135 C134 1.386 . S
C135 C139 1.383 . S
C136 C134 1.383 . S
C136 C137 1.402 . S
C136 H151 0.951 . S
C137 C136 1.402 . S
C137 C138 1.375 . S
C137 C140 1.481 . S
C138 C137 1.375 . S
C138 C139 1.367 . S
C138 H152 0.951 . S
C139 C135 1.383 . S
C139 C138 1.367 . S
C139 H153 0.950 . S
C140 C137 1.481 . S
C140 C141 1.297 . S
C140 H154 0.950 . S
C141 C140 1.297 . S
C141 C142 1.479 . S
C141 H155 0.950 . S
C142 C141 1.479 . S
C142 C143 1.375 . S
C142 C148 1.404 . S
C143 C142 1.375 . S
C143 C144 1.369 . S
C143 H156 0.950 . S
C144 C143 1.369 . S
C144 C145 1.392 . S
C144 H157 0.951 . S
C145 C144 1.392 . S
C145 C147 1.384 . S
H146 C148 0.949 . S
C147 C145 1.384 . S
C147 C148 1.385 . S
C147 H149 0.950 . S
C148 C142 1.404 . S
C148 H146 0.949 . S
C148 C147 1.385 . S
H149 C147 0.950 . S
H150 C134 0.951 . S
H151 C136 0.951 . S
H152 C138 0.951 . S
H153 C139 0.950 . S
H154 C140 0.950 . S
H155 C141 0.950 . S
H156 C143 0.950 . S
H157 C144 0.951 . S
C158 C159 1.386 . S
C158 C160 1.383 . S
C158 H174 0.951 . S
C159 C158 1.386 . S
C159 C163 1.383 . S
C160 C158 1.383 . S
C160 C161 1.402 . S
C160 H175 0.951 . S
C161 C160 1.402 . S
C161 C162 1.375 . S
C161 C164 1.481 . S
C162 C161 1.375 . S
C162 C163 1.367 . S
C162 H176 0.951 . S
C163 C159 1.383 . S
C163 C162 1.367 . S
C163 H177 0.950 . S
C164 C161 1.481 . S
C164 C165 1.297 . S
C164 H178 0.950 . S
C165 C164 1.297 . S
C165 C166 1.479 . S
C165 H179 0.950 . S
C166 C165 1.479 . S
C166 C167 1.375 . S
C166 C172 1.404 . S
C167 C166 1.375 . S
C167 C168 1.369 . S
C167 H180 0.950 . S
C168 C167 1.369 . S
C168 C169 1.392 . S
C168 H181 0.951 . S
C169 C168 1.392 . S
C169 C171 1.384 . S
H170 C172 0.949 . S
C171 C169 1.384 . S
C171 C172 1.385 . S
C171 H173 0.950 . S
C172 C166 1.404 . S
C172 H170 0.949 . S
C172 C171 1.385 . S
H173 C171 0.950 . S
H174 C158 0.951 . S
H175 C160 0.951 . S
H176 C162 0.951 . S
H177 C163 0.950 . S
H178 C164 0.950 . S
H179 C165 0.950 . S
H180 C167 0.950 . S
H181 C168 0.951 . S
C182 C183 1.386 . S
C182 C184 1.383 . S
C182 H198 0.951 . S
C183 C182 1.386 . S
C183 C187 1.383 . S
C184 C182 1.383 . S
C184 C185 1.402 . S
C184 H199 0.951 . S
C185 C184 1.402 . S
C185 C186 1.375 . S
C185 C188 1.481 . S
C186 C185 1.375 . S
C186 C187 1.367 . S
C186 H200 0.951 . S
C187 C183 1.383 . S
C187 C186 1.367 . S
C187 H201 0.950 . S
C188 C185 1.481 . S
C188 C189 1.297 . S
C188 H202 0.950 . S
C189 C188 1.297 . S
C189 C190 1.479 . S
C189 H203 0.950 . S
C190 C189 1.479 . S
C190 C191 1.375 . S
C190 C196 1.404 . S
C191 C190 1.375 . S
C191 C192 1.369 . S
C191 H204 0.950 . S
C192 C191 1.369 . S
C192 C193 1.392 . S
C192 H205 0.951 . S
C193 C192 1.392 . S
C193 C195 1.384 . S
H194 C196 0.949 . S
C195 C193 1.384 . S
C195 C196 1.385 . S
C195 H197 0.950 . S
C196 C190 1.404 . S
C196 H194 0.949 . S
C196 C195 1.385 . S
H197 C195 0.950 . S
H198 C182 0.951 . S
H199 C184 0.951 . S
H200 C186 0.951 . S
H201 C187 0.950 . S
H202 C188 0.950 . S
H203 C189 0.950 . S
H204 C191 0.950 . S
H205 C192 0.951 . S
C206 C207 1.386 . S
C206 C208 1.383 . S
C206 H222 0.951 . S
C207 C206 1.386 . S
C207 C211 1.383 . S
C208 C206 1.383 . S
C208 C209 1.402 . S
C208 H223 0.951 . S
C209 C208 1.402 . S
C209 C210 1.375 . S
C209 C212 1.481 . S
C210 C209 1.375 . S
C210 C211 1.367 . S
C210 H224 0.951 . S
C211 C207 1.383 . S
C211 C210 1.367 . S
C211 H225 0.950 . S
C212 C209 1.481 . S
C212 C213 1.297 . S
C212 H226 0.950 . S
C213 C212 1.297 . S
C213 C214 1.479 . S
C213 H227 0.950 . S
C214 C213 1.479 . S
C214 C215 1.375 . S
C214 C220 1.404 . S
C215 C214 1.375 . S
C215 C216 1.369 . S
C215 H228 0.950 . S
C216 C215 1.369 . S
C216 C217 1.392 . S
C216 H229 0.951 . S
C217 C216 1.392 . S
C217 C219 1.384 . S
H218 C220 0.949 . S
C219 C217 1.384 . S
C219 C220 1.385 . S
C219 H221 0.950 . S
C220 C214 1.404 . S
C220 H218 0.949 . S
C220 C219 1.385 . S
H221 C219 0.950 . S
H222 C206 0.951 . S
H223 C208 0.951 . S
H224 C210 0.951 . S
H225 C211 0.950 . S
H226 C212 0.950 . S
H227 C213 0.950 . S
H228 C215 0.950 . S
H229 C216 0.951 . S
C230 C231 1.386 . S
C230 C232 1.383 . S
C230 H246 0.951 . S
C231 C230 1.386 . S
C231 C235 1.383 . S
C232 C230 1.383 . S
C232 C233 1.402 . S
C232 H247 0.951 . S
C233 C232 1.402 . S
C233 C234 1.375 . S
C233 C236 1.481 . S
C234 C233 1.375 . S
C234 C235 1.367 . S
C234 H248 0.951 . S
C235 C231 1.383 . S
C235 C234 1.367 . S
C235 H249 0.950 . S
C236 C233 1.481 . S
C236 C237 1.297 . S
C236 H250 0.950 . S
C237 C236 1.297 . S
C237 C238 1.479 . S
C237 H251 0.950 . S
C238 C237 1.479 . S
C238 C239 1.375 . S
C238 C244 1.404 . S
C239 C238 1.375 . S
C239 C240 1.369 . S
C239 H252 0.950 . S
C240 C239 1.369 . S
C240 C241 1.392 . S
C240 H253 0.951 . S
C241 C240 1.392 . S
C241 C243 1.384 . S
H242 C244 0.949 . S
C243 C241 1.384 . S
C243 C244 1.385 . S
C243 H245 0.950 . S
C244 C238 1.404 . S
C244 H242 0.949 . S
C244 C243 1.385 . S
H245 C243 0.950 . S
H246 C230 0.951 . S
H247 C232 0.951 . S
H248 C234 0.951 . S
H249 C235 0.950 . S
H250 C236 0.950 . S
H251 C237 0.950 . S
H252 C239 0.950 . S
H253 C240 0.951 . S
C63 C0 1.136 . S
C73 C41 1.228 . S
C87 C29 1.744 . S
C97 C33 1.717 . S
C111 C30 1.167 . S
C121 C50 1.228 . S
C135 C1 1.599 . S
C145 C51 1.626 . S
C159 C2 1.772 . S
C169 C60 1.725 . S
C193 C61 1.137 . S
C183 C19 1.208 . S
C207 C20 1.619 . S
C217 C32 1.574 . S
C241 C31 1.172 . S
C231 C10 1.209 . S
