# Generated by pormake.
# Topology tsx, (6,3)-cn, num edge types: 1
# Building blocks:
#     Node 0, Type 0, BuildingBlock: LEVNOQ01_clean_sbu_1, # of connection points: 6
#     Node 1, Type 0, BuildingBlock: LEVNOQ01_clean_sbu_1, # of connection points: 6
#     Node 2, Type 1, BuildingBlock: OLANEW_clean_sbu_2, # of connection points: 3
#     Node 3, Type 1, BuildingBlock: OLANEW_clean_sbu_2, # of connection points: 3
#     Node 4, Type 1, BuildingBlock: OLANEW_clean_sbu_2, # of connection points: 3
#     Node 5, Type 1, BuildingBlock: OLANEW_clean_sbu_2, # of connection points: 3
#     Edge 6, Type (0, 1), BuildingBlock: OJICUG_clean_linker_0, # of connection points: 2
#     Edge 7, Type (0, 1), BuildingBlock: OJICUG_clean_linker_0, # of connection points: 2
#     Edge 8, Type (0, 1), BuildingBlock: OJICUG_clean_linker_0, # of connection points: 2
#     Edge 9, Type (0, 1), BuildingBlock: OJICUG_clean_linker_0, # of connection points: 2
#     Edge 10, Type (0, 1), BuildingBlock: OJICUG_clean_linker_0, # of connection points: 2
#     Edge 11, Type (0, 1), BuildingBlock: OJICUG_clean_linker_0, # of connection points: 2
#     Edge 12, Type (0, 1), BuildingBlock: OJICUG_clean_linker_0, # of connection points: 2
#     Edge 13, Type (0, 1), BuildingBlock: OJICUG_clean_linker_0, # of connection points: 2
#     Edge 14, Type (0, 1), BuildingBlock: OJICUG_clean_linker_0, # of connection points: 2
#     Edge 15, Type (0, 1), BuildingBlock: OJICUG_clean_linker_0, # of connection points: 2
#     Edge 16, Type (0, 1), BuildingBlock: OJICUG_clean_linker_0, # of connection points: 2
#     Edge 17, Type (0, 1), BuildingBlock: OJICUG_clean_linker_0, # of connection points: 2
# Relax obj value: 0.040
# Max RMSD: 0.096
# Mean RMSD: 0.047
data_MOF--net-tsx--node1-LEVNOQ01_clean_sbu_1--node2-OLANEW_clean_sbu_2--edge1-OJICUG_clean_linker_0
_symmetry_space_group_name_H-M    P1
_symmetry_Int_Tables_number       1
_symmetry_cell_setting            triclinic
loop_
_symmetry_equiv_pos_as_xyz
'x, y, z'
_cell_length_a     15.273972
_cell_length_b     18.771534
_cell_length_c     26.196208
_cell_angle_alpha  103.55178
_cell_angle_beta   91.589864
_cell_angle_gamma 91.165068
loop_
_atom_site_label
_atom_site_type_symbol
_atom_site_fract_x
_atom_site_fract_y
_atom_site_fract_z
_atom_type_partial_charge
O0 O 0.14536 0.03311 0.11698 0.0
Mg1 Mg 0.21339 0.02306 0.04805 0.0
O2 O 0.01949 -0.00602 0.07407 0.0
Mg3 Mg 0.03143 -0.00722 -0.01477 0.0
O4 O 0.14962 0.07369 -0.00201 0.0
O5 O 0.28276 0.10936 0.03338 0.0
O6 O 0.03998 -0.01108 0.89633 0.0
O7 O 0.95122 0.10151 -0.0053 0.0
Mg8 Mg 0.83975 0.97688 0.93741 0.0
O9 O 0.91237 0.913 0.97401 0.0
O10 O 0.90106 -0.01209 0.86819 0.0
O11 O 0.80965 0.0755 -0.00949 0.0
O12 O 0.77682 0.88092 0.94193 0.0
C13 C 0.19242 0.8688 -0.01417 0.0
C14 C 0.06632 0.01136 0.11642 0.0
C15 C 0.21593 0.11963 0.00498 0.0
C16 C 0.9826 -0.00933 0.8603 0.0
C17 C 0.87217 0.12237 -0.00044 0.0
C18 C 0.8454 0.86794 0.96777 0.0
O19 O 0.24505 0.91602 0.01362 0.0
O20 O 0.11586 0.88567 0.97223 0.0
O21 O 0.6341 0.57103 0.61823 0.0
Mg22 Mg 0.69691 0.5322 0.54881 0.0
O23 O 0.52883 0.49496 0.57864 0.0
Mg24 Mg 0.53277 0.49474 0.48768 0.0
O25 O 0.648 0.57906 0.49238 0.0
O26 O 0.78358 0.60266 0.52891 0.0
O27 O 0.53442 0.48969 0.39848 0.0
O28 O 0.45138 0.60217 0.49913 0.0
Mg29 Mg 0.34666 0.48081 0.44861 0.0
O30 O 0.41814 0.40954 0.47922 0.0
O31 O 0.39466 0.49834 0.37692 0.0
O32 O 0.31594 0.57099 0.50904 0.0
O33 O 0.28075 0.38499 0.44634 0.0
C34 C 0.68518 0.37347 0.49576 0.0
C35 C 0.5688 0.53002 0.62084 0.0
C36 C 0.72063 0.61788 0.49965 0.0
C37 C 0.47471 0.49628 0.36503 0.0
C38 C 0.37322 0.6207 0.51019 0.0
C39 C 0.34854 0.3671 0.47055 0.0
O40 O 0.72716 0.42094 0.53044 0.0
O41 O 0.61745 0.3905 0.47225 0.0
O42 O 0.03507 0.94474 0.34863 0.0
Cd43 Cd 0.07017 0.95782 0.44196 0.0
O44 O 0.09309 0.05348 0.34987 0.0
Cd45 Cd 0.09301 0.08387 0.43396 0.0
O46 O 0.97505 0.13445 0.46683 0.0
C47 C 0.91725 0.14241 0.43292 0.0
O48 O 0.9332 0.11939 0.38287 0.0
C49 C 0.05646 -0.0062 0.3249 0.0
C50 C 0.19461 0.85845 0.4579 0.0
O51 O 0.11533 0.83894 0.44337 0.0
O52 O 0.21739 0.92612 0.46472 0.0
O53 O 0.012 0.04676 0.62786 0.0
Cd54 Cd 0.03125 0.05655 0.53879 0.0
O55 O 0.10465 0.95779 0.62181 0.0
Cd56 Cd 0.07057 0.93269 0.5384 0.0
O57 O 0.95775 0.87587 0.4926 0.0
C58 C 0.88424 0.88188 0.51455 0.0
O59 O 0.87875 0.92786 0.56061 0.0
C60 C 0.05757 0.00578 0.64974 0.0
C61 C 0.17975 0.14298 0.53559 0.0
O62 O 0.10694 0.17118 0.5516 0.0
O63 O 0.18353 0.07306 0.52145 0.0
O64 O 0.5126 0.44026 0.84618 0.0
Cd65 Cd 0.54017 0.43901 0.93869 0.0
O66 O 0.62231 0.52 0.85509 0.0
Cd67 Cd 0.58741 0.56073 0.93573 0.0
O68 O 0.47004 0.6196 0.96289 0.0
C69 C 0.417 0.63083 0.92747 0.0
O70 O 0.43589 0.60635 0.87792 0.0
C71 C 0.56765 0.47582 0.82574 0.0
C72 C 0.68306 0.35621 0.95727 0.0
O73 O 0.60767 0.32644 0.94231 0.0
O74 O 0.69318 0.42543 0.96241 0.0
O75 O 0.5086 0.54569 0.12908 0.0
Cd76 Cd 0.53695 0.5527 0.03967 0.0
O77 O 0.59876 0.45548 0.12584 0.0
Cd78 Cd 0.56578 0.42654 0.0422 0.0
O79 O 0.45207 0.36848 -0.00207 0.0
C80 C 0.37714 0.3787 0.01791 0.0
O81 O 0.37043 0.42798 0.06236 0.0
C82 C 0.55135 0.50457 0.15233 0.0
C83 C 0.68098 0.6452 0.03691 0.0
O84 O 0.6055 0.67033 0.05017 0.0
O85 O 0.68974 0.5756 0.0255 0.0
C86 C 0.27239 0.19824 0.95022 0.0
C87 C 0.2143 0.18901 -0.01123 0.0
H88 H 0.36991 0.26815 0.92868 0.0
C89 C 0.19033 0.25066 0.02693 0.0
H90 H 0.29178 0.15129 0.92045 0.0
C91 C 0.23661 0.31723 0.03272 0.0
C92 C 0.30648 0.32256 -0.00015 0.0
H93 H 0.14595 0.24455 0.05732 0.0
H94 H 0.22466 0.36107 0.06667 0.0
C95 C 0.31818 0.26494 0.95559 0.0
C96 C 0.23423 0.76032 0.91704 0.0
C97 C 0.22433 0.79388 0.97016 0.0
H98 H 0.30422 0.68149 0.86155 0.0
C99 C 0.26617 0.76467 0.00881 0.0
H100 H 0.20324 0.78259 0.88669 0.0
C101 C 0.32429 0.70767 -0.00524 0.0
C102 C 0.34187 0.67911 0.94171 0.0
H103 H 0.25925 0.78995 0.05013 0.0
H104 H 0.35973 0.68953 0.02561 0.0
C105 C 0.29285 0.70314 0.90285 0.0
C106 C 0.80508 0.82148 0.0442 0.0
C107 C 0.83993 0.8072 -0.00602 0.0
H108 H 0.72577 0.77986 0.09749 0.0
C109 C 0.83928 0.7349 0.96356 0.0
H110 H 0.80354 0.87717 0.06782 0.0
C111 C 0.79625 0.67886 0.98096 0.0
C112 C 0.75116 0.69538 0.0281 0.0
H113 H 0.86417 0.72317 0.92422 0.0
H114 H 0.78971 0.62482 0.95482 0.0
C115 C 0.75996 0.76604 0.06093 0.0
C116 C 0.84765 0.20818 0.94296 0.0
C117 C 0.85045 0.19618 -0.00603 0.0
H118 H 0.79081 0.26911 0.89113 0.0
C119 C 0.81041 0.24592 0.03448 0.0
H120 H 0.87625 0.16931 0.91087 0.0
C121 C 0.76295 0.30391 0.02326 0.0
C122 C 0.75346 0.31144 0.9713 0.0
H123 H 0.81036 0.23681 0.07381 0.0
H124 H 0.72758 0.33897 0.0543 0.0
C125 C 0.79859 0.26491 0.93156 0.0
C126 C 0.78643 0.69801 0.44799 0.0
C127 C 0.72695 0.68868 0.48575 0.0
H128 H 0.88177 0.76954 0.42631 0.0
C129 C 0.70174 0.74994 0.5238 0.0
H130 H 0.80678 0.65118 0.41845 0.0
C131 C 0.74629 0.81715 0.5295 0.0
C132 C 0.81593 0.82362 0.49673 0.0
H133 H 0.65648 0.74347 0.55367 0.0
H134 H 0.73274 0.86107 0.56308 0.0
C135 C 0.83002 0.76561 0.45304 0.0
C136 C 0.72793 0.2658 0.4267 0.0
C137 C 0.72248 0.30054 0.47999 0.0
H138 H 0.7954 0.18751 0.36965 0.0
C139 C 0.76842 0.27265 0.51787 0.0
H140 H 0.6928 0.28639 0.39688 0.0
C141 C 0.82701 0.21642 0.50254 0.0
C142 C 0.84073 0.18763 0.44904 0.0
H143 H 0.7638 0.29799 0.55934 0.0
H144 H 0.86589 0.19931 0.53254 0.0
C145 C 0.78714 0.20966 0.41124 0.0
C146 C 0.33126 0.2331 0.4594 0.0
C147 C 0.34013 0.30316 0.49299 0.0
H148 H 0.27533 0.12468 0.44815 0.0
C149 C 0.31354 0.31439 0.54496 0.0
H150 H 0.35002 0.22402 0.41883 0.0
C151 C 0.26827 0.25867 0.56114 0.0
C152 C 0.25142 0.19075 0.52586 0.0
H153 H 0.31861 0.36855 0.57107 0.0
H154 H 0.24006 0.27061 0.59963 0.0
C155 C 0.28838 0.17655 0.47614 0.0
C156 C 0.35516 0.75768 0.52614 0.0
C157 C 0.34143 0.6863 0.49504 0.0
H158 H 0.31884 0.87062 0.53796 0.0
C159 C 0.29073 0.67507 0.44823 0.0
H160 H 0.39504 0.76738 0.56206 0.0
C161 C 0.24784 0.73273 0.43476 0.0
C162 C 0.25558 0.8032 0.46745 0.0
H163 H 0.28113 0.62059 0.42302 0.0
H164 H 0.20548 0.72155 0.39975 0.0
C165 C 0.31226 0.81634 0.5122 0.0
C166 C 0.07906 0.9349 0.18007 0.0
C167 C 0.03701 -0.00768 0.16407 0.0
H168 H 0.11705 0.88973 0.24508 0.0
C169 C 0.98676 0.04096 0.19939 0.0
H170 H 0.11906 0.89746 0.15308 0.0
C171 C 0.98677 0.03709 0.25192 0.0
C172 C 0.03629 -0.01577 0.26895 0.0
H173 H 0.95464 0.08579 0.18763 0.0
H174 H 0.95338 0.07859 0.27983 0.0
C175 C 0.07824 0.93053 0.23242 0.0
C176 C 0.085 0.96806 0.78515 0.0
C177 C 0.0093 -6e-05 0.80872 0.0
H178 H 0.15978 0.94415 0.71521 0.0
C179 C 0.95518 0.03909 0.78155 0.0
H180 H 0.12789 0.93794 0.8056 0.0
C181 C 0.974 0.04386 0.7309 0.0
C182 C 0.04661 0.00845 0.70582 0.0
H183 H 0.89714 0.06524 0.79923 0.0
H184 H 0.92926 0.07286 0.71068 0.0
C185 C 0.10306 0.97156 0.73362 0.0
C186 C 0.64147 0.49175 0.69453 0.0
C187 C 0.56256 0.50472 0.66973 0.0
H188 H 0.70421 0.47102 0.7632 0.0
C189 C 0.48285 0.49557 0.6931 0.0
H190 H 0.70376 0.49577 0.67643 0.0
C191 C 0.48334 0.48003 0.74308 0.0
C192 C 0.56346 0.47345 0.76938 0.0
H193 H 0.42126 0.50425 0.67426 0.0
H194 H 0.42193 0.47808 0.7625 0.0
C195 C 0.64195 0.47677 0.74389 0.0
C196 C 0.58122 0.48349 0.29199 0.0
C197 C 0.49776 0.50196 0.31163 0.0
H198 H 0.66379 0.46923 0.22541 0.0
C199 C 0.43477 0.52501 0.27927 0.0
H200 H 0.63127 0.46591 0.31609 0.0
C201 C 0.45398 0.52831 0.22823 0.0
C202 C 0.5361 0.50748 0.20798 0.0
H203 H 0.37004 0.54009 0.2932 0.0
H204 H 0.40325 0.54483 0.20399 0.0
C205 C 0.59989 0.48537 0.24025 0.0
loop_
_geom_bond_atom_site_label_1
_geom_bond_atom_site_label_2
_geom_bond_distance
_geom_bond_site_symmetry_2
_ccdc_geom_bond_type
O0 Mg1 1.990 . S
O0 C14 1.253 . S
Mg1 O0 1.990 . S
Mg1 O4 2.180 . S
Mg1 O5 2.117 . S
Mg1 O19 2.030 1_545 S
O2 Mg3 2.072 1_554 S
O2 C14 1.260 . S
Mg3 O2 2.072 1_556 S
Mg3 O4 2.099 1_556 S
Mg3 O6 2.079 . S
Mg3 O7 2.072 1_456 S
Mg3 O9 2.099 1_445 S
Mg3 O20 2.079 1_545 S
O4 Mg1 2.180 . S
O4 Mg3 2.099 1_554 S
O4 C15 1.279 . S
O5 Mg1 2.117 . S
O5 C15 1.250 . S
O6 Mg3 2.079 . S
O6 C16 1.264 . S
O7 Mg3 2.072 1_654 S
O7 C17 1.260 1_554 S
Mg8 O9 2.180 . S
Mg8 O10 2.030 1_565 S
Mg8 O11 1.990 1_565 S
Mg8 O12 2.117 . S
O9 Mg3 2.099 1_665 S
O9 Mg8 2.180 . S
O9 C18 1.279 . S
O10 Mg8 2.030 1_545 S
O10 C16 1.248 1_655 S
O11 Mg8 1.990 1_545 S
O11 C17 1.253 . S
O12 Mg8 2.117 . S
O12 C18 1.250 . S
C13 O19 1.248 . S
C13 O20 1.264 1_554 S
C14 O0 1.253 . S
C14 O2 1.260 . S
C15 O4 1.279 . S
C15 O5 1.250 . S
C16 O6 1.264 . S
C16 O10 1.248 1_455 S
C17 O7 1.260 1_556 S
C17 O11 1.253 . S
C18 O9 1.279 . S
C18 O12 1.250 . S
O19 Mg1 2.030 1_565 S
O19 C13 1.248 . S
O20 Mg3 2.079 1_565 S
O20 C13 1.264 1_556 S
O21 Mg22 1.990 . S
O21 C35 1.253 . S
Mg22 O21 1.990 . S
Mg22 O25 2.180 . S
Mg22 O26 2.117 . S
Mg22 O40 2.030 . S
O23 Mg24 2.072 . S
O23 C35 1.260 . S
Mg24 O23 2.072 . S
Mg24 O25 2.099 . S
Mg24 O27 2.079 . S
Mg24 O28 2.072 . S
Mg24 O30 2.099 . S
Mg24 O41 2.079 . S
O25 Mg22 2.180 . S
O25 Mg24 2.099 . S
O25 C36 1.279 . S
O26 Mg22 2.117 . S
O26 C36 1.250 . S
O27 Mg24 2.079 . S
O27 C37 1.264 . S
O28 Mg24 2.072 . S
O28 C38 1.260 . S
Mg29 O30 2.180 . S
Mg29 O31 2.030 . S
Mg29 O32 1.990 . S
Mg29 O33 2.117 . S
O30 Mg24 2.099 . S
O30 Mg29 2.180 . S
O30 C39 1.279 . S
O31 Mg29 2.030 . S
O31 C37 1.248 . S
O32 Mg29 1.990 . S
O32 C38 1.253 . S
O33 Mg29 2.117 . S
O33 C39 1.250 . S
C34 O40 1.248 . S
C34 O41 1.264 . S
C35 O21 1.253 . S
C35 O23 1.260 . S
C36 O25 1.279 . S
C36 O26 1.250 . S
C37 O27 1.264 . S
C37 O31 1.248 . S
C38 O28 1.260 . S
C38 O32 1.253 . S
C39 O30 1.279 . S
C39 O33 1.250 . S
O40 Mg22 2.030 . S
O40 C34 1.248 . S
O41 Mg24 2.079 . S
O41 C34 1.264 . S
O42 Cd43 2.300 . S
O42 C49 1.275 1_565 S
Cd43 O42 2.300 . S
Cd43 O51 2.381 . S
Cd43 O52 2.378 . S
O44 Cd45 2.385 . S
O44 C49 1.255 . S
Cd45 O44 2.385 . S
Cd45 O46 2.317 1_455 S
O46 Cd45 2.317 1_655 S
O46 C47 1.232 . S
C47 O46 1.232 . S
C47 O48 1.218 . S
O48 C47 1.218 . S
C49 O42 1.275 1_545 S
C49 O44 1.255 . S
C50 O51 1.258 . S
C50 O52 1.256 . S
O51 Cd43 2.381 . S
O51 C50 1.258 . S
O52 Cd43 2.378 . S
O52 C50 1.256 . S
O53 Cd54 2.300 . S
O53 C60 1.275 . S
Cd54 O53 2.300 . S
Cd54 O62 2.381 . S
Cd54 O63 2.378 . S
O55 Cd56 2.385 . S
O55 C60 1.255 1_565 S
Cd56 O55 2.385 . S
Cd56 O57 2.317 1_455 S
O57 Cd56 2.317 1_655 S
O57 C58 1.232 . S
C58 O57 1.232 . S
C58 O59 1.218 . S
O59 C58 1.218 . S
C60 O53 1.275 . S
C60 O55 1.255 1_545 S
C61 O62 1.258 . S
C61 O63 1.256 . S
O62 Cd54 2.381 . S
O62 C61 1.258 . S
O63 Cd54 2.378 . S
O63 C61 1.256 . S
O64 Cd65 2.300 . S
O64 C71 1.275 . S
Cd65 O64 2.300 . S
Cd65 O73 2.381 . S
Cd65 O74 2.378 1_556 S
O66 Cd67 2.385 . S
O66 C71 1.255 . S
Cd67 O66 2.385 . S
Cd67 O68 2.317 . S
O68 Cd67 2.317 . S
O68 C69 1.232 . S
C69 O68 1.232 . S
C69 O70 1.218 . S
O70 C69 1.218 . S
C71 O64 1.275 . S
C71 O66 1.255 . S
C72 O73 1.258 . S
C72 O74 1.256 1_556 S
O73 Cd65 2.381 . S
O73 C72 1.258 . S
O74 Cd65 2.378 1_554 S
O74 C72 1.256 1_554 S
O75 Cd76 2.300 . S
O75 C82 1.275 . S
Cd76 O75 2.300 . S
Cd76 O84 2.381 . S
Cd76 O85 2.378 . S
O77 Cd78 2.385 . S
O77 C82 1.255 . S
Cd78 O77 2.385 . S
Cd78 O79 2.317 . S
O79 Cd78 2.317 . S
O79 C80 1.232 . S
C80 O79 1.232 . S
C80 O81 1.218 . S
O81 C80 1.218 . S
C82 O75 1.275 . S
C82 O77 1.255 . S
C83 O84 1.258 . S
C83 O85 1.256 . S
O84 Cd76 2.381 . S
O84 C83 1.258 . S
O85 Cd76 2.378 . S
O85 C83 1.256 . S
C86 C87 1.387 1_556 S
C86 H90 0.950 . S
C86 C95 1.390 . S
C87 C86 1.387 1_554 S
C87 C89 1.387 . S
H88 C95 0.950 . S
C89 C87 1.387 . S
C89 C91 1.390 . S
C89 H93 0.950 . S
H90 C86 0.950 . S
C91 C89 1.390 . S
C91 C92 1.387 . S
C91 H94 0.950 . S
C92 C91 1.387 . S
C92 C95 1.387 1_554 S
H93 C89 0.950 . S
H94 C91 0.950 . S
C95 C86 1.390 . S
C95 H88 0.950 . S
C95 C92 1.387 1_556 S
C96 C97 1.387 . S
C96 H100 0.950 . S
C96 C105 1.390 . S
C97 C96 1.387 . S
C97 C99 1.387 1_556 S
H98 C105 0.950 . S
C99 C97 1.387 1_554 S
C99 C101 1.390 . S
C99 H103 0.950 . S
H100 C96 0.950 . S
C101 C99 1.390 . S
C101 C102 1.387 1_554 S
C101 H104 0.950 . S
C102 C101 1.387 1_556 S
C102 C105 1.387 . S
H103 C99 0.950 . S
H104 C101 0.950 . S
C105 C96 1.390 . S
C105 H98 0.950 . S
C105 C102 1.387 . S
C106 C107 1.387 . S
C106 H110 0.950 . S
C106 C115 1.390 . S
C107 C106 1.387 . S
C107 C109 1.387 1_554 S
H108 C115 0.950 . S
C109 C107 1.387 1_556 S
C109 C111 1.390 . S
C109 H113 0.950 . S
H110 C106 0.950 . S
C111 C109 1.390 . S
C111 C112 1.387 1_556 S
C111 H114 0.950 . S
C112 C111 1.387 1_554 S
C112 C115 1.387 . S
H113 C109 0.950 . S
H114 C111 0.950 . S
C115 C106 1.390 . S
C115 H108 0.950 . S
C115 C112 1.387 . S
C116 C117 1.376 1_556 S
C116 H120 0.950 . S
C116 C125 1.390 . S
C117 C116 1.376 1_554 S
C117 C119 1.396 . S
H118 C125 0.950 . S
C119 C117 1.396 . S
C119 C121 1.390 . S
C119 H123 0.950 . S
H120 C116 0.950 . S
C121 C119 1.390 . S
C121 C122 1.387 1_554 S
C121 H124 0.950 . S
C122 C121 1.387 1_556 S
C122 C125 1.387 . S
H123 C119 0.950 . S
H124 C121 0.950 . S
C125 C116 1.390 . S
C125 H118 0.950 . S
C125 C122 1.387 . S
C126 C127 1.387 . S
C126 H130 0.950 . S
C126 C135 1.390 . S
C127 C126 1.387 . S
C127 C129 1.387 . S
H128 C135 0.950 . S
C129 C127 1.387 . S
C129 C131 1.390 . S
C129 H133 0.950 . S
H130 C126 0.950 . S
C131 C129 1.390 . S
C131 C132 1.387 . S
C131 H134 0.950 . S
C132 C131 1.387 . S
C132 C135 1.387 . S
H133 C129 0.950 . S
H134 C131 0.950 . S
C135 C126 1.390 . S
C135 H128 0.950 . S
C135 C132 1.387 . S
C136 C137 1.387 . S
C136 H140 0.950 . S
C136 C145 1.390 . S
C137 C136 1.387 . S
C137 C139 1.387 . S
H138 C145 0.950 . S
C139 C137 1.387 . S
C139 C141 1.390 . S
C139 H143 0.950 . S
H140 C136 0.950 . S
C141 C139 1.390 . S
C141 C142 1.387 . S
C141 H144 0.950 . S
C142 C141 1.387 . S
C142 C145 1.387 . S
H143 C139 0.950 . S
H144 C141 0.950 . S
C145 C136 1.390 . S
C145 H138 0.950 . S
C145 C142 1.387 . S
C146 C147 1.387 . S
C146 H150 0.950 . S
C146 C155 1.390 . S
C147 C146 1.387 . S
C147 C149 1.387 . S
H148 C155 0.950 . S
C149 C147 1.387 . S
C149 C151 1.390 . S
C149 H153 0.950 . S
H150 C146 0.950 . S
C151 C149 1.390 . S
C151 C152 1.387 . S
C151 H154 0.950 . S
C152 C151 1.387 . S
C152 C155 1.387 . S
H153 C149 0.950 . S
H154 C151 0.950 . S
C155 C146 1.390 . S
C155 H148 0.950 . S
C155 C152 1.387 . S
C156 C157 1.387 . S
C156 H160 0.950 . S
C156 C165 1.390 . S
C157 C156 1.387 . S
C157 C159 1.387 . S
H158 C165 0.950 . S
C159 C157 1.387 . S
C159 C161 1.390 . S
C159 H163 0.950 . S
H160 C156 0.950 . S
C161 C159 1.390 . S
C161 C162 1.387 . S
C161 H164 0.950 . S
C162 C161 1.387 . S
C162 C165 1.387 . S
H163 C159 0.950 . S
H164 C161 0.950 . S
C165 C156 1.390 . S
C165 H158 0.950 . S
C165 C162 1.387 . S
C166 C167 1.387 1_565 S
C166 H170 0.950 . S
C166 C175 1.390 . S
C167 C166 1.387 1_545 S
C167 C169 1.387 1_455 S
H168 C175 0.950 . S
C169 C167 1.387 1_655 S
C169 C171 1.390 . S
C169 H173 0.950 . S
H170 C166 0.950 . S
C171 C169 1.390 . S
C171 C172 1.387 1_655 S
C171 H174 0.950 . S
C172 C171 1.387 1_455 S
C172 C175 1.387 1_545 S
H173 C169 0.950 . S
H174 C171 0.950 . S
C175 C166 1.390 . S
C175 H168 0.950 . S
C175 C172 1.387 1_565 S
C176 C177 1.387 1_565 S
C176 H180 0.950 . S
C176 C185 1.390 1_565 S
C177 C176 1.387 1_545 S
C177 C179 1.387 1_455 S
H178 C185 0.950 1_565 S
C179 C177 1.387 1_655 S
C179 C181 1.390 . S
C179 H183 0.950 . S
H180 C176 0.950 . S
C181 C179 1.390 . S
C181 C182 1.387 1_655 S
C181 H184 0.950 . S
C182 C181 1.387 1_455 S
C182 C185 1.387 . S
H183 C179 0.950 . S
H184 C181 0.950 . S
C185 C176 1.390 1_545 S
C185 H178 0.950 1_545 S
C185 C182 1.387 . S
C186 C187 1.387 . S
C186 H190 0.950 . S
C186 C195 1.390 . S
C187 C186 1.387 . S
C187 C189 1.387 . S
H188 C195 0.950 . S
C189 C187 1.387 . S
C189 C191 1.390 . S
C189 H193 0.950 . S
H190 C186 0.950 . S
C191 C189 1.390 . S
C191 C192 1.387 . S
C191 H194 0.950 . S
C192 C191 1.387 . S
C192 C195 1.387 . S
H193 C189 0.950 . S
H194 C191 0.950 . S
C195 C186 1.390 . S
C195 H188 0.950 . S
C195 C192 1.387 . S
C196 C197 1.387 . S
C196 H200 0.950 . S
C196 C205 1.390 . S
C197 C196 1.387 . S
C197 C199 1.387 . S
H198 C205 0.950 . S
C199 C197 1.387 . S
C199 C201 1.390 . S
C199 H203 0.950 . S
H200 C196 0.950 . S
C201 C199 1.390 . S
C201 C202 1.387 . S
C201 H204 0.950 . S
C202 C201 1.387 . S
C202 C205 1.387 . S
H203 C199 0.950 . S
H204 C201 0.950 . S
C205 C196 1.390 . S
C205 H198 0.950 . S
C205 C202 1.387 . S
C92 C80 1.202 . S
C87 C15 1.319 . S
C97 C13 1.482 1_556 S
C102 C69 1.262 . S
C107 C18 1.290 1_554 S
C112 C83 1.455 . S
C117 C17 1.408 1_554 S
C122 C72 1.431 . S
C127 C36 1.319 . S
C132 C58 1.202 . S
C137 C34 1.482 . S
C142 C47 1.262 . S
C152 C61 1.452 . S
C147 C39 1.285 . S
C162 C50 1.428 . S
C157 C38 1.403 . S
C167 C14 1.511 . S
C172 C49 1.508 . S
C177 C16 1.386 . S
C182 C60 1.382 . S
C192 C71 1.509 . S
C187 C35 1.510 . S
C197 C37 1.385 . S
C202 C82 1.381 . S
