# Generated by pormake.
# Topology pts, (4,4)-cn, num edge types: 1
# Building blocks:
#     Node 0, Type 0, BuildingBlock: NAWXER_clean_sbu_0, # of connection points: 4
#     Node 1, Type 0, BuildingBlock: NAWXER_clean_sbu_0, # of connection points: 4
#     Node 2, Type 1, BuildingBlock: AZAVOO_clean_sbu_0, # of connection points: 4
#     Node 3, Type 1, BuildingBlock: AZAVOO_clean_sbu_0, # of connection points: 4
#     Edge 4, Type (0, 1), BuildingBlock: FUNLAD_clean_linker_0, # of connection points: 2
#     Edge 5, Type (0, 1), BuildingBlock: FUNLAD_clean_linker_0, # of connection points: 2
#     Edge 6, Type (0, 1), BuildingBlock: FUNLAD_clean_linker_0, # of connection points: 2
#     Edge 7, Type (0, 1), BuildingBlock: FUNLAD_clean_linker_0, # of connection points: 2
#     Edge 8, Type (0, 1), BuildingBlock: FUNLAD_clean_linker_0, # of connection points: 2
#     Edge 9, Type (0, 1), BuildingBlock: FUNLAD_clean_linker_0, # of connection points: 2
#     Edge 10, Type (0, 1), BuildingBlock: FUNLAD_clean_linker_0, # of connection points: 2
#     Edge 11, Type (0, 1), BuildingBlock: FUNLAD_clean_linker_0, # of connection points: 2
# Relax obj value: 0.010
# Max RMSD: 0.058
# Mean RMSD: 0.047
data_MOF--net-pts--node1-NAWXER_clean_sbu_0--node2-AZAVOO_clean_sbu_0--edge1-FUNLAD_clean_linker_0
_symmetry_space_group_name_H-M    P1
_symmetry_Int_Tables_number       1
_symmetry_cell_setting            triclinic
loop_
_symmetry_equiv_pos_as_xyz
'x, y, z'
_cell_length_a     26.522725
_cell_length_b     27.48811
_cell_length_c     43.83679
_cell_angle_alpha  89.762312
_cell_angle_beta   96.032523
_cell_angle_gamma 89.956134
loop_
_atom_site_label
_atom_site_type_symbol
_atom_site_fract_x
_atom_site_fract_y
_atom_site_fract_z
_atom_type_partial_charge
C0 C 0.48494 0.05474 0.96635 0.0
C1 C 0.61946 0.05705 0.05186 0.0
O2 O 0.50073 0.01241 0.97523 0.0
Zn3 Zn 0.55509 0.98024 0.0086 0.0
O4 O 0.50537 0.09229 0.97922 0.0
Zn5 Zn 0.55371 0.05818 0.00834 0.0
O6 O 0.60535 0.02631 0.97979 0.0
O7 O 0.60087 0.94654 0.98406 0.0
O8 O 0.59987 0.09405 0.03763 0.0
O9 O 0.60561 0.01422 0.04316 0.0
O10 O 0.51172 0.94381 0.03335 0.0
O11 O 0.50406 0.02343 0.03756 0.0
C12 C 0.62019 0.98387 0.97262 0.0
C13 C 0.49137 0.9803 0.04502 0.0
C14 C 1.00235 0.57376 0.45715 0.0
C15 C 0.99879 0.45969 0.54263 0.0
O16 O 0.96314 0.5567 0.46781 0.0
Zn17 Zn 0.99923 0.51786 0.49989 0.0
O18 O 0.04664 0.56229 0.46983 0.0
Zn19 Zn 0.08017 0.51766 0.50726 0.0
O20 O 0.11936 0.47202 0.48554 0.0
O21 O 0.03668 0.46688 0.47303 0.0
O22 O 0.04388 0.4719 0.53773 0.0
O23 O 0.96128 0.47752 0.52586 0.0
O24 O 0.03167 0.57347 0.52967 0.0
O25 O 0.11492 0.56489 0.53475 0.0
C26 C 0.08186 0.45324 0.46929 0.0
C27 C 0.07564 0.58768 0.54108 0.0
Mg28 Mg 0.09356 0.99173 0.27755 0.0
O29 O 0.02007 0.01592 0.24826 0.0
O30 O 0.95975 0.02124 0.28011 0.0
Mg31 Mg 0.9929 0.00156 0.32861 0.0
C32 C 0.97441 0.02512 0.25338 0.0
C33 C 0.17709 0.97687 0.23628 0.0
O34 O 0.18324 0.94155 0.25663 0.0
O35 O 0.10416 0.06879 0.29713 0.0
O36 O 0.04223 0.06966 0.32813 0.0
O37 O 0.07228 0.91323 0.27136 0.0
O38 O 0.05132 0.95871 0.30936 0.0
C39 C 0.07925 0.09003 0.31667 0.0
C40 C 0.04873 0.91741 0.29563 0.0
O41 O 0.14131 0.00722 0.23818 0.0
Mg42 Mg 0.00995 0.00488 0.73827 0.0
O43 O 0.08963 0.01593 0.76458 0.0
O44 O 0.14468 0.01708 0.72921 0.0
Mg45 Mg 0.10234 0.01154 0.68149 0.0
C46 C 0.13493 0.0189 0.7571 0.0
C47 C 0.95919 0.98415 0.79782 0.0
O48 O 0.97501 0.94061 0.79107 0.0
O49 O 0.00766 0.08519 0.72376 0.0
O50 O 0.06503 0.08499 0.68969 0.0
O51 O 0.02156 0.92394 0.73848 0.0
O52 O 0.04218 0.97266 0.70179 0.0
C53 C 0.03299 0.10699 0.70456 0.0
C54 C 0.04173 0.92947 0.7131 0.0
O55 O 0.96996 0.02012 0.78129 0.0
C56 C 0.43392 0.01502 0.08112 0.0
C57 C 0.45329 0.97401 0.06719 0.0
C58 C 0.39824 0.00997 0.10216 0.0
C59 C 0.38048 0.96366 0.10964 0.0
C60 C 0.40016 0.9226 0.09593 0.0
C61 C 0.43607 0.92766 0.07487 0.0
C62 C 0.34356 0.95672 0.13269 0.0
C63 C 0.3121 0.99204 0.14071 0.0
C64 C 0.2771 0.98636 0.16496 0.0
C65 C 0.23677 0.01941 0.16577 0.0
C66 C 0.20412 0.01648 0.18881 0.0
C67 C 0.21127 0.98049 0.2117 0.0
H68 H 0.31584 0.92534 0.18907 0.0
C69 C 0.25175 0.94758 0.21102 0.0
C70 C 0.28441 0.95056 0.18806 0.0
H71 H 0.25864 0.91962 0.22844 0.0
H72 H 0.4467 0.0513 0.07603 0.0
H73 H 0.38573 0.04252 0.11292 0.0
H74 H 0.38766 0.88642 0.1015 0.0
H75 H 0.45032 0.89531 0.06465 0.0
H76 H 0.34168 0.92071 0.14272 0.0
H77 H 0.31072 0.02659 0.12859 0.0
H78 H 0.23048 0.0477 0.1485 0.0
H79 H 0.17337 0.04246 0.18869 0.0
C80 C 0.03352 0.40888 0.58729 0.0
C81 C 0.99151 0.42435 0.56742 0.0
C82 C 0.02822 0.3736 0.60967 0.0
C83 C 0.98054 0.35293 0.61297 0.0
C84 C 0.93834 0.3688 0.59336 0.0
C85 C 0.94364 0.40442 0.57093 0.0
C86 C 0.97502 0.31141 0.63433 0.0
C87 C 0.00845 0.30241 0.65906 0.0
C88 C 0.01221 0.25462 0.67495 0.0
C89 C 0.06075 0.23667 0.68478 0.0
C90 C 0.06713 0.18918 0.69579 0.0
C91 C 0.02496 0.15919 0.69816 0.0
H92 H 0.93167 0.23873 0.6719 0.0
C93 C 0.97603 0.17811 0.69056 0.0
C94 C 0.96965 0.22546 0.6787 0.0
H95 H 0.94299 0.15545 0.69211 0.0
H96 H 0.07102 0.42328 0.58521 0.0
H97 H 0.0622 0.36137 0.62335 0.0
H98 H 0.9013 0.35305 0.59508 0.0
H99 H 0.91053 0.41544 0.55591 0.0
H100 H 0.94474 0.28561 0.628 0.0
H101 H 0.03845 0.32835 0.66557 0.0
H102 H 0.0941 0.2585 0.68231 0.0
H103 H 0.10521 0.17532 0.70158 0.0
C104 C 0.69393 0.09892 0.08093 0.0
C105 C 0.65728 0.06186 0.07884 0.0
C106 C 0.73228 0.09957 0.10558 0.0
C107 C 0.73366 0.0637 0.1287 0.0
C108 C 0.69573 0.02807 0.12706 0.0
C109 C 0.65841 0.02674 0.10225 0.0
C110 C 0.7734 0.06208 0.15512 0.0
C111 C 0.82217 0.07431 0.1533 0.0
C112 C 0.86203 0.06546 0.17924 0.0
C113 C 0.91146 0.05331 0.17318 0.0
C114 C 0.94842 0.0408 0.19718 0.0
C115 C 0.93667 0.04059 0.22774 0.0
H116 H 0.81395 0.07837 0.21557 0.0
C117 C 0.88776 0.05491 0.23377 0.0
C118 C 0.85103 0.0674 0.20989 0.0
H119 H 0.8775 0.05616 0.25703 0.0
H120 H 0.69382 0.12636 0.06312 0.0
H121 H 0.7605 0.12812 0.1066 0.0
H122 H 0.69567 0.00033 0.1447 0.0
H123 H 0.63037 -0.00202 0.10132 0.0
H124 H 0.76292 0.04512 0.17597 0.0
H125 H 0.83392 0.08647 0.13151 0.0
H126 H 0.92108 0.05203 0.14978 0.0
H127 H 0.98583 0.03044 0.1917 0.0
C128 C 0.12086 0.63951 0.58256 0.0
C129 C 0.07957 0.6318 0.56027 0.0
C130 C 0.12267 0.6812 0.601 0.0
C131 C 0.08365 0.71611 0.59688 0.0
C132 C 0.04328 0.70879 0.57408 0.0
C133 C 0.0409 0.66688 0.55626 0.0
C134 C 0.08369 0.76107 0.61537 0.0
C135 C 0.10086 0.76314 0.64534 0.0
C136 C 0.09211 0.80681 0.66392 0.0
C137 C 0.07987 0.80102 0.6941 0.0
C138 C 0.06498 0.84113 0.71061 0.0
C139 C 0.06281 0.88782 0.69731 0.0
H140 H 0.10344 0.85979 0.62842 0.0
C141 C 0.07811 0.89391 0.6678 0.0
C142 C 0.09272 0.85389 0.65131 0.0
H143 H 0.07716 0.92936 0.65691 0.0
H144 H 0.15123 0.61305 0.58603 0.0
H145 H 0.15477 0.6864 0.61806 0.0
H146 H 0.01296 0.73529 0.57034 0.0
H147 H 0.00886 0.66222 0.53904 0.0
H148 H 0.06363 0.79222 0.6046 0.0
H149 H 0.11601 0.73059 0.65713 0.0
H150 H 0.07958 0.76515 0.70442 0.0
H151 H 0.05381 0.83532 0.73341 0.0
C152 C 0.42506 0.01647 0.92578 0.0
C153 C 0.44193 0.05847 0.94196 0.0
C154 C 0.3831 0.01818 0.90384 0.0
C155 C 0.35685 0.06206 0.8973 0.0
C156 C 0.37331 0.1041 0.91356 0.0
C157 C 0.41577 0.10246 0.93554 0.0
C158 C 0.31145 0.06398 0.8743 0.0
C159 C 0.30703 0.0351 0.8494 0.0
C160 C 0.26206 0.03391 0.82621 0.0
C161 C 0.26895 0.01892 0.79641 0.0
C162 C 0.2277 0.01452 0.77412 0.0
C163 C 0.17817 0.02417 0.7812 0.0
H164 H 0.20585 0.05447 0.85643 0.0
C165 C 0.17101 0.03889 0.81114 0.0
C166 C 0.21263 0.04396 0.83345 0.0
H167 H 0.13334 0.04656 0.81732 0.0
H168 H 0.44397 0.98184 0.93027 0.0
H169 H 0.37067 0.98468 0.89255 0.0
H170 H 0.35344 0.13826 0.90916 0.0
H171 H 0.42752 0.13534 0.94782 0.0
H172 H 0.28221 0.09065 0.87741 0.0
H173 H 0.33885 0.01218 0.84499 0.0
H174 H 0.30652 0.01046 0.7903 0.0
H175 H 0.2347 0.00282 0.75138 0.0
C176 C 0.13496 0.39277 0.44345 0.0
C177 C 0.08914 0.41811 0.44466 0.0
C178 C 0.13991 0.35881 0.4201 0.0
C179 C 0.09917 0.35024 0.39741 0.0
C180 C 0.05435 0.37708 0.39818 0.0
C181 C 0.04921 0.41021 0.42154 0.0
C182 C 0.09939 0.31208 0.37351 0.0
C183 C 0.13044 0.27316 0.37514 0.0
C184 C 0.11763 0.22923 0.35625 0.0
C185 C 0.15608 0.19886 0.34731 0.0
C186 C 0.14384 0.15456 0.33252 0.0
C187 C 0.09303 0.13956 0.32733 0.0
H188 H 0.03609 0.23623 0.35721 0.0
C189 C 0.05472 0.1705 0.33561 0.0
C190 C 0.06677 0.21473 0.34983 0.0
H191 H 0.01524 0.15978 0.33196 0.0
H192 H 0.16656 0.39855 0.46079 0.0
H193 H 0.17542 0.3395 0.42004 0.0
H194 H 0.02236 0.37147 0.38104 0.0
H195 H 0.01365 0.42967 0.42143 0.0
H196 H 0.06835 0.31327 0.35521 0.0
H197 H 0.16307 0.27112 0.39222 0.0
H198 H 0.19555 0.20894 0.35235 0.0
H199 H 0.1741 0.13101 0.32664 0.0
C200 C 0.67968 0.02116 0.93846 0.0
C201 C 0.66047 0.9793 0.95173 0.0
C202 C 0.71855 0.01775 0.9194 0.0
C203 C 0.73966 0.97227 0.91327 0.0
C204 C 0.71982 0.93035 0.9261 0.0
C205 C 0.68078 0.93376 0.94518 0.0
C206 C 0.78097 0.96679 0.8929 0.0
C207 C 0.81178 0.00337 0.88582 0.0
C208 C 0.85168 -0.00213 0.86456 0.0
C209 C 0.86726 0.03911 0.84897 0.0
C210 C 0.90317 0.03514 0.82786 0.0
C211 C 0.92469 0.9898 0.82211 0.0
H212 H 0.86537 0.9205 0.87203 0.0
C213 C 0.91066 0.94889 0.83866 0.0
C214 C 0.8747 0.95284 0.85966 0.0
H215 H 0.92689 0.91346 0.83509 0.0
H216 H 0.6646 0.05684 0.94273 0.0
H217 H 0.73109 0.05091 0.90924 0.0
H218 H 0.73487 0.89475 0.92156 0.0
H219 H 0.66682 0.90078 0.95494 0.0
H220 H 0.78579 0.9309 0.8834 0.0
H221 H 0.80709 0.03941 0.89509 0.0
H222 H 0.85069 0.07439 0.85258 0.0
H223 H 0.91326 0.06742 0.81563 0.0
C224 C 0.95297 0.6315 0.42063 0.0
C225 C 0.99805 0.60624 0.43005 0.0
C226 C 0.951 0.66447 0.39605 0.0
C227 C 0.99404 0.67226 0.38038 0.0
C228 C 0.03809 0.64518 0.38895 0.0
C229 C 0.04027 0.61291 0.41363 0.0
C230 C 0.99585 0.70968 0.35601 0.0
C231 C 0.96976 0.75174 0.35568 0.0
C232 C 0.98295 0.79424 0.33706 0.0
C233 C 0.97855 0.84093 0.34926 0.0
C234 C 0.99806 0.88127 0.33507 0.0
C235 C 0.02168 0.87591 0.30804 0.0
H236 H 1.00606 0.75386 0.29834 0.0
C237 C 0.02279 0.82967 0.29457 0.0
C238 C 1.00356 0.78916 0.30892 0.0
H239 H 0.04021 0.82441 0.27356 0.0
H240 H 0.91971 0.62672 0.4327 0.0
H241 H 0.91598 0.68388 0.38953 0.0
H242 H 0.07164 0.65018 0.37715 0.0
H243 H 0.07536 0.59344 0.42001 0.0
H244 H 0.02523 0.70548 0.34072 0.0
H245 H 0.94383 0.75793 0.37288 0.0
H246 H 0.96252 0.84593 0.37077 0.0
H247 H 0.99647 0.91626 0.34612 0.0
loop_
_geom_bond_atom_site_label_1
_geom_bond_atom_site_label_2
_geom_bond_distance
_geom_bond_site_symmetry_2
_ccdc_geom_bond_type
C0 O2 1.247 1_545 S
C0 O4 1.258 . S
C1 O8 1.247 . S
C1 O9 1.258 1_545 S
O2 C0 1.247 1_565 S
O2 Zn3 2.028 1_556 S
Zn3 O2 2.028 1_554 S
Zn3 O7 2.035 1_554 S
Zn3 O9 2.035 . S
Zn3 O10 2.028 . S
O4 C0 1.258 . S
O4 Zn5 2.035 1_556 S
Zn5 O4 2.035 1_554 S
Zn5 O6 2.028 1_554 S
Zn5 O8 2.028 . S
Zn5 O11 2.035 . S
O6 Zn5 2.028 1_556 S
O6 C12 1.247 . S
O7 Zn3 2.035 1_556 S
O7 C12 1.258 1_565 S
O8 C1 1.247 . S
O8 Zn5 2.028 . S
O9 C1 1.258 1_565 S
O9 Zn3 2.035 . S
O10 Zn3 2.028 . S
O10 C13 1.247 1_565 S
O11 Zn5 2.035 . S
O11 C13 1.258 . S
C12 O6 1.247 . S
C12 O7 1.258 1_545 S
C13 O10 1.247 1_545 S
C13 O11 1.258 . S
C14 O16 1.247 . S
C14 O18 1.258 . S
C15 O22 1.247 . S
C15 O23 1.249 1_455 S
O16 C14 1.247 . S
O16 Zn17 2.028 1_455 S
Zn17 O16 2.028 1_655 S
Zn17 O21 2.035 1_655 S
Zn17 O23 2.036 . S
Zn17 O24 2.029 . S
O18 C14 1.258 . S
O18 Zn19 2.035 . S
Zn19 O18 2.035 . S
Zn19 O20 2.028 . S
Zn19 O22 2.028 . S
Zn19 O25 2.035 . S
O20 Zn19 2.028 . S
O20 C26 1.247 . S
O21 Zn17 2.035 1_455 S
O21 C26 1.258 . S
O22 C15 1.247 . S
O22 Zn19 2.028 . S
O23 C15 1.249 1_655 S
O23 Zn17 2.036 . S
O24 Zn17 2.029 . S
O24 C27 1.237 1_655 S
O25 Zn19 2.035 . S
O25 C27 1.258 . S
C26 O20 1.247 . S
C26 O21 1.258 . S
C27 O24 1.237 1_455 S
C27 O25 1.258 . S
Mg28 O29 2.028 . S
Mg28 O35 1.986 . S
Mg28 O37 2.114 1_545 S
Mg28 O38 2.251 1_545 S
Mg28 O41 2.010 . S
O29 Mg28 2.028 . S
O29 C32 1.250 1_455 S
O30 Mg31 2.028 . S
O30 C32 1.248 . S
Mg31 O30 2.028 . S
Mg31 O36 2.032 1_655 S
Mg31 O38 2.079 1_645 S
C32 O29 1.250 1_655 S
C32 O30 1.248 . S
C33 O34 1.264 . S
C33 O41 1.249 . S
O34 C33 1.264 . S
O35 Mg28 1.986 . S
O35 C39 1.246 . S
O36 Mg31 2.032 1_455 S
O36 C39 1.259 . S
O37 Mg28 2.114 1_565 S
O37 C40 1.252 . S
O38 Mg28 2.251 1_565 S
O38 Mg31 2.079 1_465 S
O38 C40 1.273 . S
C39 O35 1.246 . S
C39 O36 1.259 . S
C40 O37 1.252 . S
C40 O38 1.273 . S
O41 Mg28 2.010 . S
O41 C33 1.249 . S
Mg42 O43 2.028 1_655 S
Mg42 O49 1.985 1_655 S
Mg42 O51 2.114 1_545 S
Mg42 O52 2.251 1_645 S
Mg42 O55 2.010 . S
O43 Mg42 2.028 1_455 S
O43 C46 1.250 . S
O44 Mg45 2.028 . S
O44 C46 1.248 . S
Mg45 O44 2.028 . S
Mg45 O50 2.032 . S
Mg45 O52 2.079 1_545 S
C46 O43 1.250 . S
C46 O44 1.248 . S
C47 O48 1.264 . S
C47 O55 1.249 . S
O48 C47 1.264 . S
O49 Mg42 1.985 1_455 S
O49 C53 1.252 . S
O50 Mg45 2.032 . S
O50 C53 1.259 . S
O51 Mg42 2.114 1_565 S
O51 C54 1.252 1_655 S
O52 Mg42 2.251 1_465 S
O52 Mg45 2.079 1_565 S
O52 C54 1.273 . S
C53 O49 1.252 . S
C53 O50 1.259 . S
C54 O51 1.252 1_455 S
C54 O52 1.273 . S
O55 Mg42 2.010 . S
O55 C47 1.249 . S
C56 C57 1.386 . S
C56 C58 1.383 . S
C56 H72 0.951 . S
C57 C56 1.386 . S
C57 C61 1.383 . S
C58 C56 1.383 . S
C58 C59 1.403 . S
C58 H73 0.951 . S
C59 C58 1.403 . S
C59 C60 1.375 1_545 S
C59 C62 1.480 1_545 S
C60 C59 1.375 1_565 S
C60 C61 1.367 1_565 S
C60 H74 0.951 . S
C61 C57 1.383 . S
C61 C60 1.367 1_545 S
C61 H75 0.949 1_545 S
C62 C59 1.480 1_565 S
C62 C63 1.297 . S
C62 H76 0.950 . S
C63 C62 1.297 . S
C63 C64 1.479 . S
C63 H77 0.950 . S
C64 C63 1.479 . S
C64 C65 1.375 1_565 S
C64 C70 1.404 . S
C65 C64 1.375 1_545 S
C65 C66 1.369 . S
C65 H78 0.950 . S
C66 C65 1.369 . S
C66 C67 1.392 . S
C66 H79 0.951 . S
C67 C66 1.392 . S
C67 C69 1.384 . S
H68 C70 0.949 . S
C69 C67 1.384 . S
C69 C70 1.385 1_545 S
C69 H71 0.950 1_545 S
C70 C64 1.404 . S
C70 H68 0.949 . S
C70 C69 1.385 1_565 S
H71 C69 0.950 1_565 S
H72 C56 0.951 . S
H73 C58 0.951 . S
H74 C60 0.951 . S
H75 C61 0.949 1_565 S
H76 C62 0.950 . S
H77 C63 0.950 . S
H78 C65 0.950 . S
H79 C66 0.951 . S
C80 C81 1.386 . S
C80 C82 1.383 . S
C80 H96 0.951 . S
C81 C80 1.386 . S
C81 C85 1.383 1_455 S
C82 C80 1.383 . S
C82 C83 1.402 . S
C82 H97 0.951 . S
C83 C82 1.402 . S
C83 C84 1.375 1_455 S
C83 C86 1.481 . S
C84 C83 1.375 1_655 S
C84 C85 1.367 . S
C84 H98 0.951 . S
C85 C81 1.383 1_655 S
C85 C84 1.367 . S
C85 H99 0.950 . S
C86 C83 1.481 . S
C86 C87 1.297 . S
C86 H100 0.950 1_455 S
C87 C86 1.297 . S
C87 C88 1.479 . S
C87 H101 0.950 . S
C88 C87 1.479 . S
C88 C89 1.375 . S
C88 C94 1.404 1_455 S
C89 C88 1.375 . S
C89 C90 1.369 . S
C89 H102 0.950 . S
C90 C89 1.369 . S
C90 C91 1.392 . S
C90 H103 0.951 . S
C91 C90 1.392 . S
C91 C93 1.384 1_455 S
H92 C94 0.949 . S
C93 C91 1.384 1_655 S
C93 C94 1.385 . S
C93 H95 0.950 . S
C94 C88 1.404 1_655 S
C94 H92 0.949 . S
C94 C93 1.385 . S
H95 C93 0.950 . S
H96 C80 0.951 . S
H97 C82 0.951 . S
H98 C84 0.951 . S
H99 C85 0.950 . S
H100 C86 0.950 1_655 S
H101 C87 0.950 . S
H102 C89 0.950 . S
H103 C90 0.951 . S
C104 C105 1.386 . S
C104 C106 1.383 . S
C104 H120 0.951 . S
C105 C104 1.386 . S
C105 C109 1.383 . S
C106 C104 1.383 . S
C106 C107 1.402 . S
C106 H121 0.951 . S
C107 C106 1.402 . S
C107 C108 1.375 . S
C107 C110 1.481 . S
C108 C107 1.375 . S
C108 C109 1.367 . S
C108 H122 0.951 . S
C109 C105 1.383 . S
C109 C108 1.367 . S
C109 H123 0.950 1_545 S
C110 C107 1.481 . S
C110 C111 1.297 . S
C110 H124 0.950 . S
C111 C110 1.297 . S
C111 C112 1.479 . S
C111 H125 0.950 . S
C112 C111 1.479 . S
C112 C113 1.375 . S
C112 C118 1.404 . S
C113 C112 1.375 . S
C113 C114 1.369 . S
C113 H126 0.950 . S
C114 C113 1.369 . S
C114 C115 1.392 . S
C114 H127 0.951 . S
C115 C114 1.392 . S
C115 C117 1.384 . S
H116 C118 0.949 . S
C117 C115 1.384 . S
C117 C118 1.385 . S
C117 H119 0.950 . S
C118 C112 1.404 . S
C118 H116 0.949 . S
C118 C117 1.385 . S
H119 C117 0.950 . S
H120 C104 0.951 . S
H121 C106 0.951 . S
H122 C108 0.951 . S
H123 C109 0.950 1_565 S
H124 C110 0.950 . S
H125 C111 0.950 . S
H126 C113 0.950 . S
H127 C114 0.951 . S
C128 C129 1.386 . S
C128 C130 1.383 . S
C128 H144 0.951 . S
C129 C128 1.386 . S
C129 C133 1.383 . S
C130 C128 1.383 . S
C130 C131 1.402 . S
C130 H145 0.951 . S
C131 C130 1.402 . S
C131 C132 1.375 . S
C131 C134 1.481 . S
C132 C131 1.375 . S
C132 C133 1.367 . S
C132 H146 0.951 1_455 S
C133 C129 1.383 . S
C133 C132 1.367 . S
C133 H147 0.950 1_455 S
C134 C131 1.481 . S
C134 C135 1.297 . S
C134 H148 0.950 . S
C135 C134 1.297 . S
C135 C136 1.479 . S
C135 H149 0.950 . S
C136 C135 1.479 . S
C136 C137 1.375 . S
C136 C142 1.404 . S
C137 C136 1.375 . S
C137 C138 1.369 . S
C137 H150 0.950 . S
C138 C137 1.369 . S
C138 C139 1.392 . S
C138 H151 0.951 . S
C139 C138 1.392 . S
C139 C141 1.384 . S
H140 C142 0.949 . S
C141 C139 1.384 . S
C141 C142 1.385 . S
C141 H143 0.950 1_455 S
C142 C136 1.404 . S
C142 H140 0.949 . S
C142 C141 1.385 . S
H143 C141 0.950 1_655 S
H144 C128 0.951 . S
H145 C130 0.951 . S
H146 C132 0.951 1_655 S
H147 C133 0.950 1_655 S
H148 C134 0.950 . S
H149 C135 0.950 . S
H150 C137 0.950 . S
H151 C138 0.951 . S
C152 C153 1.386 1_565 S
C152 C154 1.383 . S
C152 H168 0.951 . S
C153 C152 1.386 1_545 S
C153 C157 1.383 . S
C154 C152 1.383 . S
C154 C155 1.402 1_565 S
C154 H169 0.951 . S
C155 C154 1.402 1_545 S
C155 C156 1.375 . S
C155 C158 1.481 . S
C156 C155 1.375 . S
C156 C157 1.367 . S
C156 H170 0.951 . S
C157 C153 1.383 . S
C157 C156 1.367 . S
C157 H171 0.950 . S
C158 C155 1.481 . S
C158 C159 1.297 1_545 S
C158 H172 0.950 . S
C159 C158 1.297 1_565 S
C159 C160 1.479 1_565 S
C159 H173 0.950 . S
C160 C159 1.479 1_545 S
C160 C161 1.375 1_545 S
C160 C166 1.404 . S
C161 C160 1.375 1_565 S
C161 C162 1.369 . S
C161 H174 0.950 . S
C162 C161 1.369 . S
C162 C163 1.392 1_565 S
C162 H175 0.951 . S
C163 C162 1.392 1_545 S
C163 C165 1.384 . S
H164 C166 0.949 . S
C165 C163 1.384 . S
C165 C166 1.385 . S
C165 H167 0.950 . S
C166 C160 1.404 . S
C166 H164 0.949 . S
C166 C165 1.385 . S
H167 C165 0.950 . S
H168 C152 0.951 . S
H169 C154 0.951 . S
H170 C156 0.951 . S
H171 C157 0.950 . S
H172 C158 0.950 . S
H173 C159 0.950 . S
H174 C161 0.950 . S
H175 C162 0.951 . S
C176 C177 1.386 . S
C176 C178 1.383 . S
C176 H192 0.951 . S
C177 C176 1.386 . S
C177 C181 1.383 . S
C178 C176 1.383 . S
C178 C179 1.402 . S
C178 H193 0.951 . S
C179 C178 1.402 . S
C179 C180 1.370 1_455 S
C179 C182 1.481 . S
C180 C179 1.370 1_655 S
C180 C181 1.367 1_655 S
C180 H194 0.956 . S
C181 C177 1.383 . S
C181 C180 1.367 1_455 S
C181 H195 0.950 1_455 S
C182 C179 1.481 . S
C182 C183 1.297 . S
C182 H196 0.950 . S
C183 C182 1.297 . S
C183 C184 1.479 . S
C183 H197 0.950 . S
C184 C183 1.479 . S
C184 C185 1.375 . S
C184 C190 1.404 . S
C185 C184 1.375 . S
C185 C186 1.369 . S
C185 H198 0.950 . S
C186 C185 1.369 . S
C186 C187 1.392 . S
C186 H199 0.951 . S
C187 C186 1.392 . S
C187 C189 1.384 . S
H188 C190 0.949 1_655 S
C189 C187 1.384 . S
C189 C190 1.385 . S
C189 H191 0.950 1_455 S
C190 C184 1.404 . S
C190 H188 0.949 1_455 S
C190 C189 1.385 . S
H191 C189 0.950 1_655 S
H192 C176 0.951 . S
H193 C178 0.951 . S
H194 C180 0.956 . S
H195 C181 0.950 1_655 S
H196 C182 0.950 . S
H197 C183 0.950 . S
H198 C185 0.950 . S
H199 C186 0.951 . S
C200 C201 1.386 . S
C200 C202 1.383 . S
C200 H216 0.951 . S
C201 C200 1.386 . S
C201 C205 1.383 1_545 S
C202 C200 1.383 . S
C202 C203 1.402 1_545 S
C202 H217 0.951 . S
C203 C202 1.402 1_565 S
C203 C204 1.375 . S
C203 C206 1.481 . S
C204 C203 1.375 . S
C204 C205 1.367 . S
C204 H218 0.951 . S
C205 C201 1.383 1_565 S
C205 C204 1.367 . S
C205 H219 0.950 . S
C206 C203 1.481 . S
C206 C207 1.297 1_565 S
C206 H220 0.950 . S
C207 C206 1.297 1_545 S
C207 C208 1.479 . S
C207 H221 0.950 . S
C208 C207 1.479 . S
C208 C209 1.375 . S
C208 C214 1.404 1_545 S
C209 C208 1.375 . S
C209 C210 1.369 . S
C209 H222 0.950 . S
C210 C209 1.369 . S
C210 C211 1.392 . S
C210 H223 0.951 . S
C211 C210 1.392 . S
C211 C213 1.384 1_545 S
H212 C214 0.949 . S
C213 C211 1.384 1_565 S
C213 C214 1.385 . S
C213 H215 0.950 . S
C214 C208 1.404 1_565 S
C214 H212 0.949 . S
C214 C213 1.385 . S
H215 C213 0.950 . S
H216 C200 0.951 . S
H217 C202 0.951 . S
H218 C204 0.951 . S
H219 C205 0.950 . S
H220 C206 0.950 . S
H221 C207 0.950 . S
H222 C209 0.950 . S
H223 C210 0.951 . S
C224 C225 1.386 . S
C224 C226 1.383 . S
C224 H240 0.951 . S
C225 C224 1.386 . S
C225 C229 1.383 . S
C226 C224 1.383 . S
C226 C227 1.402 . S
C226 H241 0.951 . S
C227 C226 1.402 . S
C227 C228 1.375 . S
C227 C230 1.481 . S
C228 C227 1.375 . S
C228 C229 1.367 . S
C228 H242 0.951 . S
C229 C225 1.383 . S
C229 C228 1.367 . S
C229 H243 0.950 . S
C230 C227 1.481 . S
C230 C231 1.297 . S
C230 H244 0.950 . S
C231 C230 1.297 . S
C231 C232 1.479 . S
C231 H245 0.950 . S
C232 C231 1.479 . S
C232 C233 1.375 . S
C232 C238 1.404 . S
C233 C232 1.375 . S
C233 C234 1.369 . S
C233 H246 0.950 . S
C234 C233 1.369 . S
C234 C235 1.392 . S
C234 H247 0.951 . S
C235 C234 1.392 . S
C235 C237 1.384 . S
H236 C238 0.949 . S
C237 C235 1.384 . S
C237 C238 1.385 . S
C237 H239 0.950 . S
C238 C232 1.404 . S
C238 H236 0.949 . S
C238 C237 1.385 . S
H239 C237 0.950 . S
H240 C224 0.951 . S
H241 C226 0.951 . S
H242 C228 0.951 . S
H243 C229 0.950 . S
H244 C230 0.950 . S
H245 C231 0.950 . S
H246 C233 0.950 . S
H247 C234 0.951 . S
C67 C33 1.256 . S
C57 C13 1.453 . S
C91 C53 1.455 . S
C81 C15 1.455 . S
C115 C32 1.425 . S
C105 C1 1.465 . S
C139 C54 1.462 . S
C129 C27 1.474 . S
C163 C46 1.464 . S
C153 C0 1.471 . S
C187 C39 1.383 . S
C177 C26 1.456 . S
C211 C47 1.337 . S
C201 C12 1.458 . S
C225 C14 1.468 . S
C235 C40 1.461 . S
