# Generated by pormake.
# Topology bcu-b, (8,8)-cn, num edge types: 1
# Building blocks:
#     Node 0, Type 0, BuildingBlock: TAGTUT_clean_sbu_1, # of connection points: 8
#     Node 1, Type 1, BuildingBlock: TAGTUT_clean_sbu_1, # of connection points: 8
#     Edge 2, Type (0, 1), BuildingBlock: FUNLAD_clean_linker_0, # of connection points: 2
#     Edge 3, Type (0, 1), BuildingBlock: FUNLAD_clean_linker_0, # of connection points: 2
#     Edge 4, Type (0, 1), BuildingBlock: FUNLAD_clean_linker_0, # of connection points: 2
#     Edge 5, Type (0, 1), BuildingBlock: FUNLAD_clean_linker_0, # of connection points: 2
#     Edge 6, Type (0, 1), BuildingBlock: FUNLAD_clean_linker_0, # of connection points: 2
#     Edge 7, Type (0, 1), BuildingBlock: FUNLAD_clean_linker_0, # of connection points: 2
#     Edge 8, Type (0, 1), BuildingBlock: FUNLAD_clean_linker_0, # of connection points: 2
#     Edge 9, Type (0, 1), BuildingBlock: FUNLAD_clean_linker_0, # of connection points: 2
# Relax obj value: 0.020
# Max RMSD: 0.081
# Mean RMSD: 0.081
data_MOF--net-bcu-b--node1-TAGTUT_clean_sbu_1--node2-TAGTUT_clean_sbu_1--edge1-FUNLAD_clean_linker_0
_symmetry_space_group_name_H-M    P1
_symmetry_Int_Tables_number       1
_symmetry_cell_setting            triclinic
loop_
_symmetry_equiv_pos_as_xyz
'x, y, z'
_cell_length_a     21.904357
_cell_length_b     20.763973
_cell_length_c     25.559925
_cell_angle_alpha  90.648414
_cell_angle_beta   92.582732
_cell_angle_gamma 106.10935
loop_
_atom_site_label
_atom_site_type_symbol
_atom_site_fract_x
_atom_site_fract_y
_atom_site_fract_z
_atom_type_partial_charge
C0 C 0.88873 0.16479 0.00262 0.0
C1 C 0.96612 0.14872 0.85186 0.0
C2 C 0.9226 0.88622 0.89629 0.0
Mg3 Mg 1.02068 0.16056 -0.03486 0.0
O4 O 0.98182 0.06947 -0.02379 0.0
Mg5 Mg 0.89994 0.02694 0.93583 0.0
Mg6 Mg 0.02903 0.00268 -0.03774 0.0
O7 O 0.0756 0.93554 0.94812 0.0
Mg8 Mg 0.03487 0.84514 0.96059 0.0
Mg9 Mg 0.15729 0.97722 -0.01131 0.0
C10 C 0.13478 0.11971 0.02836 0.0
C11 C 0.14878 0.0729 0.89134 0.0
O12 O 0.86259 0.10805 -0.02118 0.0
O13 O 0.94871 0.19329 0.00273 0.0
O14 O 0.92583 0.09569 0.8663 0.0
O15 O 1.01169 0.18192 0.8828 0.0
O16 O 0.11019 0.16446 0.00898 0.0
O17 O 0.1088 0.05641 0.02083 0.0
C18 C 0.90915 0.93078 0.03254 0.0
O19 O 0.96858 0.9387 0.02599 0.0
O20 O 0.87626 0.95951 0.00352 0.0
O21 O 0.19306 0.89451 0.94604 0.0
O22 O 0.10598 0.80878 0.9252 0.0
O23 O 0.1305 0.9084 0.05831 0.0
C24 C 0.16597 0.83665 0.92425 0.0
O25 O 0.04151 0.82577 0.04318 0.0
O26 O 0.94606 0.84084 0.91593 0.0
C27 C 0.08865 0.85694 0.07346 0.0
O28 O 0.94944 0.9492 0.90392 0.0
O29 O 0.08964 0.06629 0.89844 0.0
O30 O 0.18143 0.04394 0.92043 0.0
C31 C 0.37712 0.64198 0.53612 0.0
C32 C 0.41069 0.62136 0.37228 0.0
C33 C 0.4229 0.37277 0.41879 0.0
Mg34 Mg 0.49679 0.65298 0.4721 0.0
O35 O 0.4759 0.56276 0.49078 0.0
Mg36 Mg 0.38929 0.50587 0.46756 0.0
Mg37 Mg 0.52885 0.50716 0.46421 0.0
O38 O 0.58239 0.45247 0.43736 0.0
Mg39 Mg 0.56289 0.36099 0.45233 0.0
Mg40 Mg 0.66881 0.51027 0.46101 0.0
C41 C 0.63542 0.64146 0.50807 0.0
C42 C 0.61214 0.59118 0.37292 0.0
O43 O 0.35318 0.58114 0.51889 0.0
O44 O 0.43155 0.67833 0.5231 0.0
O45 O 0.38119 0.56766 0.39458 0.0
O46 O 0.46204 0.66035 0.39287 0.0
O47 O 0.59799 0.67753 0.49557 0.0
O48 O 0.61718 0.577 0.50542 0.0
C49 C 0.4468 0.42899 0.55848 0.0
O50 O 0.50103 0.44272 0.53765 0.0
O51 O 0.40013 0.44769 0.53873 0.0
O52 O 0.70636 0.43816 0.40787 0.0
O53 O 0.62826 0.34117 0.39846 0.0
O54 O 0.67651 0.44628 0.53242 0.0
C55 C 0.68297 0.3789 0.38735 0.0
O56 O 0.60005 0.34952 0.53044 0.0
O57 O 0.46111 0.33689 0.42955 0.0
C58 C 0.6492 0.3904 0.55276 0.0
O59 O 0.44048 0.43718 0.42342 0.0
O60 O 0.5565 0.57205 0.39111 0.0
O61 O 0.65934 0.57347 0.39271 0.0
C62 C 0.22443 0.20933 0.06945 0.0
C63 C 0.18556 0.143 0.06961 0.0
C64 C 0.25799 0.23934 0.11511 0.0
C65 C 0.25241 0.20402 0.16189 0.0
C66 C 0.2187 0.13557 0.16081 0.0
C67 C 0.18575 0.10516 0.11481 0.0
C68 C 0.28002 0.24131 0.21103 0.0
C69 C 0.2563 0.22515 0.25836 0.0
C70 C 0.2852 0.26553 0.30574 0.0
C71 C 0.29803 0.23299 0.35088 0.0
C72 C 0.33772 0.26953 0.39162 0.0
C73 C 0.36394 0.33922 0.38801 0.0
H74 H 0.29386 0.36233 0.27108 0.0
C75 C 0.34385 0.37267 0.34601 0.0
C76 C 0.30513 0.33596 0.30488 0.0
H77 H 0.36306 0.42635 0.34224 0.0
H78 H 0.22546 0.23944 0.03497 0.0
H79 H 0.28489 0.2917 0.11467 0.0
H80 H 0.21575 0.10604 0.1957 0.0
H81 H 0.15632 0.05381 0.11599 0.0
H82 H 0.31932 0.28628 0.20762 0.0
H83 H 0.21767 0.18012 0.26314 0.0
H84 H 0.28198 0.17882 0.35271 0.0
H85 H 0.35206 0.24263 0.42386 0.0
C86 C 0.87737 0.25864 0.06005 0.0
C87 C 0.85073 0.19429 0.03743 0.0
C88 C 0.84819 0.28179 0.10089 0.0
C89 C 0.79179 0.24087 0.1203 0.0
C90 C 0.76251 0.17885 0.09497 0.0
C91 C 0.79174 0.1556 0.05402 0.0
C92 C 0.76317 0.2604 0.16749 0.0
C93 C 0.79758 0.30128 0.20616 0.0
C94 C 0.76973 0.31831 0.2546 0.0
C95 C 0.79883 0.37943 0.28123 0.0
C96 C 0.77237 0.39826 0.32575 0.0
C97 C 0.71655 0.35582 0.34492 0.0
H98 H 0.69349 0.22566 0.25723 0.0
C99 C 0.68949 0.29303 0.31979 0.0
C100 C 0.71573 0.27445 0.27524 0.0
H101 H 0.64692 0.25858 0.33372 0.0
H102 H 0.9222 0.29035 0.04759 0.0
H103 H 0.87069 0.33124 0.11761 0.0
H104 H 0.7184 0.14685 0.10852 0.0
H105 H 0.76977 0.10589 0.03741 0.0
H106 H 0.71261 0.23781 0.17132 0.0
H107 H 0.84813 0.32396 0.20244 0.0
H108 H 0.84115 0.41364 0.26667 0.0
H109 H 0.79466 0.44686 0.34415 0.0
C110 C 0.80955 0.87752 0.07698 0.0
C111 C 0.87557 0.88764 0.07394 0.0
C112 C 0.77628 0.83911 0.11612 0.0
C113 C 0.80789 0.80886 0.1532 0.0
C114 C 0.87385 0.81849 0.15024 0.0
C115 C 0.90748 0.85743 0.11086 0.0
C116 C 0.77428 0.77105 0.19728 0.0
C117 C 0.71042 0.74576 0.19764 0.0
C118 C 0.67862 0.7123 0.24393 0.0
C119 C 0.6222 0.6596 0.23727 0.0
C120 C 0.59597 0.62258 0.28036 0.0
C121 C 0.62594 0.63859 0.33027 0.0
H122 H 0.74619 0.77418 0.30165 0.0
C123 C 0.67882 0.69484 0.33744 0.0
C124 C 0.70466 0.73174 0.29479 0.0
H125 H 0.70217 0.70824 0.37592 0.0
H126 H 0.78311 0.90011 0.04942 0.0
H127 H 0.72615 0.83519 0.11772 0.0
H128 H 0.89955 0.79633 0.17875 0.0
H129 H 0.95827 0.86459 0.10985 0.0
H130 H 0.8037 0.76342 0.23071 0.0
H131 H 0.68063 0.7465 0.16271 0.0
H132 H 0.60052 0.64474 0.19847 0.0
H133 H 0.5553 0.57901 0.27418 0.0
C134 C 0.15589 0.86102 0.15538 0.0
C135 C 0.10423 0.82557 0.12218 0.0
C136 C 0.18496 0.82714 0.19111 0.0
C137 C 0.16275 0.75711 0.19462 0.0
C138 C 0.10664 0.72277 0.16611 0.0
C139 C 0.07766 0.75666 0.12992 0.0
C140 C 0.19914 0.71895 0.22573 0.0
C141 C 0.26341 0.73665 0.22804 0.0
C142 C 0.30292 0.7017 0.2593 0.0
C143 C 0.36629 0.73673 0.27339 0.0
C144 C 0.4034 0.70869 0.30713 0.0
C145 C 0.37798 0.64463 0.32727 0.0
H146 H 0.23162 0.60561 0.2643 0.0
C147 C 0.31633 0.60736 0.30963 0.0
C148 C 0.27915 0.63554 0.27606 0.0
H149 H 0.29543 0.55744 0.3237 0.0
H150 H 0.17678 0.91439 0.15127 0.0
H151 H 0.22638 0.85553 0.21445 0.0
H152 H 0.08775 0.66896 0.16914 0.0
H153 H 0.03766 0.72788 0.10525 0.0
H154 H 0.17228 0.67452 0.24504 0.0
H155 H 0.28883 0.78068 0.20731 0.0
H156 H 0.38634 0.78728 0.26018 0.0
H157 H 0.45081 0.7387 0.31949 0.0
C158 C 0.25279 0.84384 0.8624 0.0
C159 C 0.20245 0.80452 0.89024 0.0
C160 C 0.27706 0.8154 0.82105 0.0
C161 C 0.25169 0.74701 0.80722 0.0
C162 C 0.20533 0.70676 0.83801 0.0
C163 C 0.18042 0.7353 0.87875 0.0
C164 C 0.2708 0.71661 0.76003 0.0
C165 C 0.2856 0.75074 0.71568 0.0
C166 C 0.30317 0.72126 0.66728 0.0
C167 C 0.3415 0.76437 0.63246 0.0
C168 C 0.36273 0.73875 0.58824 0.0
C169 C 0.34525 0.66933 0.57733 0.0
H170 H 0.25114 0.61742 0.67972 0.0
C171 C 0.30351 0.62638 0.61029 0.0
C172 C 0.28271 0.65204 0.65494 0.0
H173 H 0.28912 0.57267 0.60294 0.0
H174 H 0.27072 0.89731 0.87033 0.0
H175 H 0.31452 0.84736 0.79925 0.0
H176 H 0.18583 0.65375 0.82873 0.0
H177 H 0.14191 0.70366 0.89979 0.0
H178 H 0.26924 0.66395 0.76127 0.0
H179 H 0.28642 0.80328 0.71488 0.0
H180 H 0.35703 0.81796 0.64047 0.0
H181 H 0.39447 0.7733 0.56342 0.0
C182 C 0.24698 0.12007 0.8432 0.0
C183 C 0.18248 0.11568 0.84976 0.0
C184 C 0.28146 0.16231 0.80653 0.0
C185 C 0.25223 0.20101 0.7747 0.0
C186 C 0.18747 0.19609 0.78062 0.0
C187 C 0.15279 0.1537 0.81771 0.0
C188 C 0.28829 0.24937 0.73701 0.0
C189 C 0.347 0.2511 0.72168 0.0
C190 C 0.38146 0.30164 0.68497 0.0
C191 C 0.42367 0.28522 0.65067 0.0
C192 C 0.45033 0.32937 0.6114 0.0
C193 C 0.43499 0.39029 0.60643 0.0
H194 H 0.34212 0.38141 0.71034 0.0
C195 C 0.39758 0.40909 0.64366 0.0
C196 C 0.37154 0.36555 0.68284 0.0
H197 H 0.38599 0.45647 0.64095 0.0
H198 H 0.27174 0.0916 0.86711 0.0
H199 H 0.33132 0.16525 0.80466 0.0
H200 H 0.16374 0.22567 0.75684 0.0
H201 H 0.10326 0.15143 0.82168 0.0
H202 H 0.26455 0.28455 0.72053 0.0
H203 H 0.36935 0.21274 0.73351 0.0
H204 H 0.4332 0.23678 0.65239 0.0
H205 H 0.47896 0.31391 0.58293 0.0
C206 C 0.95943 0.24792 0.79995 0.0
C207 C 0.94982 0.17827 0.80267 0.0
C208 C 0.92569 0.27433 0.76196 0.0
C209 C 0.88222 0.23142 0.72582 0.0
C210 C 0.87825 0.1628 0.7251 0.0
C211 C 0.91124 0.13636 0.76338 0.0
C212 C 0.83777 0.25517 0.69028 0.0
C213 C 0.81618 0.3083 0.70167 0.0
C214 C 0.76775 0.32789 0.66772 0.0
C215 C 0.77096 0.39601 0.6634 0.0
C216 C 0.72936 0.41633 0.62844 0.0
C217 C 0.68273 0.36871 0.59791 0.0
H218 H 0.71314 0.22687 0.64378 0.0
C219 C 0.67622 0.30022 0.6054 0.0
C220 C 0.71852 0.27998 0.63978 0.0
H221 H 0.64082 0.26227 0.58254 0.0
H222 H 0.98883 0.28149 0.8297 0.0
H223 H 0.93204 0.32791 0.76231 0.0
H224 H 0.84617 0.12878 0.69705 0.0
H225 H 0.90315 0.08248 0.76436 0.0
H226 H 0.81886 0.2249 0.65518 0.0
H227 H 0.8349 0.33933 0.73639 0.0
H228 H 0.80761 0.43381 0.68531 0.0
H229 H 0.73538 0.4695 0.62378 0.0
C230 C 0.87143 0.90383 0.81091 0.0
C231 C 0.87181 0.86421 0.85506 0.0
C232 C 0.83856 0.87507 0.76452 0.0
C233 C 0.80514 0.8066 0.76208 0.0
C234 C 0.79937 0.7695 0.80796 0.0
C235 C 0.83289 0.79787 0.85403 0.0
C236 C 0.77867 0.77105 0.71223 0.0
C237 C 0.80437 0.7882 0.66578 0.0
C238 C 0.7766 0.7488 0.61791 0.0
C239 C 0.75833 0.67836 0.61801 0.0
C240 C 0.71829 0.64181 0.57762 0.0
C241 C 0.69535 0.6755 0.53725 0.0
H242 H 0.77627 0.83607 0.5727 0.0
C243 C 0.72056 0.74536 0.53379 0.0
C244 C 0.76145 0.7818 0.57385 0.0
H245 H 0.70435 0.77239 0.50255 0.0
H246 H 0.90077 0.95529 0.81073 0.0
H247 H 0.84154 0.90579 0.73028 0.0
H248 H 0.77259 0.71705 0.80725 0.0
H249 H 0.83189 0.76652 0.88777 0.0
H250 H 0.73891 0.72621 0.71437 0.0
H251 H 0.84355 0.83307 0.66214 0.0
H252 H 0.77139 0.65187 0.65105 0.0
H253 H 0.70023 0.58797 0.58106 0.0
loop_
_geom_bond_atom_site_label_1
_geom_bond_atom_site_label_2
_geom_bond_distance
_geom_bond_site_symmetry_2
_ccdc_geom_bond_type
C0 O12 1.241 . S
C0 O13 1.280 . S
C1 O14 1.277 . S
C1 O15 1.245 . S
C2 O26 1.247 . S
C2 O28 1.289 . S
Mg3 O4 1.926 . S
Mg3 O13 1.984 . S
Mg3 O15 1.988 1_554 S
Mg3 O16 2.061 1_655 S
O4 Mg3 1.926 . S
O4 Mg5 1.986 1_554 S
O4 Mg6 1.917 1_655 S
Mg5 O4 1.986 1_556 S
Mg5 O12 2.042 1_556 S
Mg5 O14 2.041 . S
Mg5 O20 2.038 1_546 S
Mg5 O28 2.238 1_545 S
Mg6 O4 1.917 1_455 S
Mg6 O7 1.917 1_544 S
Mg6 O17 2.106 . S
Mg6 O19 2.079 1_445 S
Mg6 O28 2.106 1_444 S
Mg6 O29 2.079 1_554 S
O7 Mg6 1.917 1_566 S
O7 Mg8 1.926 . S
O7 Mg9 1.986 1_556 S
Mg8 O7 1.926 . S
Mg8 O22 1.984 . S
Mg8 O25 1.988 1_556 S
Mg8 O26 2.061 1_455 S
Mg9 O7 1.986 1_554 S
Mg9 O17 2.238 1_565 S
Mg9 O21 2.042 1_554 S
Mg9 O23 2.041 . S
Mg9 O30 2.038 1_564 S
C10 O16 1.247 . S
C10 O17 1.289 . S
C11 O29 1.245 . S
C11 O30 1.274 . S
O12 C0 1.241 . S
O12 Mg5 2.042 1_554 S
O13 C0 1.280 . S
O13 Mg3 1.984 . S
O14 C1 1.277 . S
O14 Mg5 2.041 . S
O15 C1 1.245 . S
O15 Mg3 1.988 1_556 S
O16 Mg3 2.061 1_455 S
O16 C10 1.247 . S
O17 Mg6 2.106 . S
O17 Mg9 2.238 1_545 S
O17 C10 1.289 . S
C18 O19 1.245 . S
C18 O20 1.274 . S
O19 Mg6 2.079 1_665 S
O19 C18 1.245 . S
O20 Mg5 2.038 1_564 S
O20 C18 1.274 . S
O21 Mg9 2.042 1_556 S
O21 C24 1.241 . S
O22 Mg8 1.984 . S
O22 C24 1.280 . S
O23 Mg9 2.041 . S
O23 C27 1.277 . S
C24 O21 1.241 . S
C24 O22 1.280 . S
O25 Mg8 1.988 1_554 S
O25 C27 1.245 . S
O26 C2 1.247 . S
O26 Mg8 2.061 1_655 S
C27 O23 1.277 . S
C27 O25 1.245 . S
O28 C2 1.289 . S
O28 Mg5 2.238 1_565 S
O28 Mg6 2.106 1_666 S
O29 Mg6 2.079 1_556 S
O29 C11 1.245 . S
O30 Mg9 2.038 1_546 S
O30 C11 1.274 . S
C31 O43 1.241 . S
C31 O44 1.280 . S
C32 O45 1.277 . S
C32 O46 1.245 . S
C33 O57 1.247 . S
C33 O59 1.289 . S
Mg34 O35 1.926 . S
Mg34 O44 1.984 . S
Mg34 O46 1.988 . S
Mg34 O47 2.061 . S
O35 Mg34 1.926 . S
O35 Mg36 1.986 . S
O35 Mg37 1.917 . S
Mg36 O35 1.986 . S
Mg36 O43 2.042 . S
Mg36 O45 2.041 . S
Mg36 O51 2.038 . S
Mg36 O59 2.238 . S
Mg37 O35 1.917 . S
Mg37 O38 1.917 . S
Mg37 O48 2.106 . S
Mg37 O50 2.079 . S
Mg37 O59 2.106 . S
Mg37 O60 2.079 . S
O38 Mg37 1.917 . S
O38 Mg39 1.926 . S
O38 Mg40 1.986 . S
Mg39 O38 1.926 . S
Mg39 O53 1.984 . S
Mg39 O56 1.988 . S
Mg39 O57 2.061 . S
Mg40 O38 1.986 . S
Mg40 O48 2.238 . S
Mg40 O52 2.042 . S
Mg40 O54 2.041 . S
Mg40 O61 2.038 . S
C41 O47 1.247 . S
C41 O48 1.289 . S
C42 O60 1.245 . S
C42 O61 1.274 . S
O43 C31 1.241 . S
O43 Mg36 2.042 . S
O44 C31 1.280 . S
O44 Mg34 1.984 . S
O45 C32 1.277 . S
O45 Mg36 2.041 . S
O46 C32 1.245 . S
O46 Mg34 1.988 . S
O47 Mg34 2.061 . S
O47 C41 1.247 . S
O48 Mg37 2.106 . S
O48 Mg40 2.238 . S
O48 C41 1.289 . S
C49 O50 1.245 . S
C49 O51 1.274 . S
O50 Mg37 2.079 . S
O50 C49 1.245 . S
O51 Mg36 2.038 . S
O51 C49 1.274 . S
O52 Mg40 2.042 . S
O52 C55 1.241 . S
O53 Mg39 1.984 . S
O53 C55 1.280 . S
O54 Mg40 2.041 . S
O54 C58 1.277 . S
C55 O52 1.241 . S
C55 O53 1.280 . S
O56 Mg39 1.988 . S
O56 C58 1.245 . S
O57 C33 1.247 . S
O57 Mg39 2.061 . S
C58 O54 1.277 . S
C58 O56 1.245 . S
O59 C33 1.289 . S
O59 Mg36 2.238 . S
O59 Mg37 2.106 . S
O60 Mg37 2.079 . S
O60 C42 1.245 . S
O61 Mg40 2.038 . S
O61 C42 1.274 . S
C62 C63 1.386 . S
C62 C64 1.383 . S
C62 H78 0.951 . S
C63 C62 1.386 . S
C63 C67 1.383 . S
C64 C62 1.383 . S
C64 C65 1.402 . S
C64 H79 0.951 . S
C65 C64 1.402 . S
C65 C66 1.375 . S
C65 C68 1.481 . S
C66 C65 1.375 . S
C66 C67 1.367 . S
C66 H80 0.951 . S
C67 C63 1.383 . S
C67 C66 1.367 . S
C67 H81 0.950 . S
C68 C65 1.481 . S
C68 C69 1.297 . S
C68 H82 0.950 . S
C69 C68 1.297 . S
C69 C70 1.479 . S
C69 H83 0.950 . S
C70 C69 1.479 . S
C70 C71 1.375 . S
C70 C76 1.404 . S
C71 C70 1.375 . S
C71 C72 1.369 . S
C71 H84 0.950 . S
C72 C71 1.369 . S
C72 C73 1.392 . S
C72 H85 0.951 . S
C73 C72 1.392 . S
C73 C75 1.384 . S
H74 C76 0.949 . S
C75 C73 1.384 . S
C75 C76 1.385 . S
C75 H77 0.950 . S
C76 C70 1.404 . S
C76 H74 0.949 . S
C76 C75 1.385 . S
H77 C75 0.950 . S
H78 C62 0.951 . S
H79 C64 0.951 . S
H80 C66 0.951 . S
H81 C67 0.950 . S
H82 C68 0.950 . S
H83 C69 0.950 . S
H84 C71 0.950 . S
H85 C72 0.951 . S
C86 C87 1.386 . S
C86 C88 1.383 . S
C86 H102 0.951 . S
C87 C86 1.386 . S
C87 C91 1.383 . S
C88 C86 1.383 . S
C88 C89 1.402 . S
C88 H103 0.951 . S
C89 C88 1.402 . S
C89 C90 1.375 . S
C89 C92 1.481 . S
C90 C89 1.375 . S
C90 C91 1.367 . S
C90 H104 0.951 . S
C91 C87 1.383 . S
C91 C90 1.367 . S
C91 H105 0.950 . S
C92 C89 1.481 . S
C92 C93 1.297 . S
C92 H106 0.950 . S
C93 C92 1.297 . S
C93 C94 1.479 . S
C93 H107 0.950 . S
C94 C93 1.479 . S
C94 C95 1.375 . S
C94 C100 1.404 . S
C95 C94 1.375 . S
C95 C96 1.369 . S
C95 H108 0.950 . S
C96 C95 1.369 . S
C96 C97 1.392 . S
C96 H109 0.951 . S
C97 C96 1.392 . S
C97 C99 1.384 . S
H98 C100 0.949 . S
C99 C97 1.384 . S
C99 C100 1.385 . S
C99 H101 0.950 . S
C100 C94 1.404 . S
C100 H98 0.949 . S
C100 C99 1.385 . S
H101 C99 0.950 . S
H102 C86 0.951 . S
H103 C88 0.951 . S
H104 C90 0.951 . S
H105 C91 0.950 . S
H106 C92 0.950 . S
H107 C93 0.950 . S
H108 C95 0.950 . S
H109 C96 0.951 . S
C110 C111 1.386 . S
C110 C112 1.383 . S
C110 H126 0.951 . S
C111 C110 1.386 . S
C111 C115 1.383 . S
C112 C110 1.383 . S
C112 C113 1.402 . S
C112 H127 0.951 . S
C113 C112 1.402 . S
C113 C114 1.375 . S
C113 C116 1.481 . S
C114 C113 1.375 . S
C114 C115 1.367 . S
C114 H128 0.951 . S
C115 C111 1.383 . S
C115 C114 1.367 . S
C115 H129 0.950 . S
C116 C113 1.481 . S
C116 C117 1.297 . S
C116 H130 0.950 . S
C117 C116 1.297 . S
C117 C118 1.479 . S
C117 H131 0.950 . S
C118 C117 1.479 . S
C118 C119 1.375 . S
C118 C124 1.404 . S
C119 C118 1.375 . S
C119 C120 1.369 . S
C119 H132 0.950 . S
C120 C119 1.369 . S
C120 C121 1.392 . S
C120 H133 0.951 . S
C121 C120 1.392 . S
C121 C123 1.384 . S
H122 C124 0.949 . S
C123 C121 1.384 . S
C123 C124 1.385 . S
C123 H125 0.950 . S
C124 C118 1.404 . S
C124 H122 0.949 . S
C124 C123 1.385 . S
H125 C123 0.950 . S
H126 C110 0.951 . S
H127 C112 0.951 . S
H128 C114 0.951 . S
H129 C115 0.950 . S
H130 C116 0.950 . S
H131 C117 0.950 . S
H132 C119 0.950 . S
H133 C120 0.951 . S
C134 C135 1.386 . S
C134 C136 1.383 . S
C134 H150 0.951 . S
C135 C134 1.386 . S
C135 C139 1.383 . S
C136 C134 1.383 . S
C136 C137 1.402 . S
C136 H151 0.951 . S
C137 C136 1.402 . S
C137 C138 1.375 . S
C137 C140 1.481 . S
C138 C137 1.375 . S
C138 C139 1.367 . S
C138 H152 0.951 . S
C139 C135 1.383 . S
C139 C138 1.367 . S
C139 H153 0.950 . S
C140 C137 1.481 . S
C140 C141 1.297 . S
C140 H154 0.950 . S
C141 C140 1.297 . S
C141 C142 1.479 . S
C141 H155 0.950 . S
C142 C141 1.479 . S
C142 C143 1.375 . S
C142 C148 1.404 . S
C143 C142 1.375 . S
C143 C144 1.369 . S
C143 H156 0.950 . S
C144 C143 1.369 . S
C144 C145 1.392 . S
C144 H157 0.951 . S
C145 C144 1.392 . S
C145 C147 1.384 . S
H146 C148 0.949 . S
C147 C145 1.384 . S
C147 C148 1.385 . S
C147 H149 0.950 . S
C148 C142 1.404 . S
C148 H146 0.949 . S
C148 C147 1.385 . S
H149 C147 0.950 . S
H150 C134 0.951 . S
H151 C136 0.951 . S
H152 C138 0.951 . S
H153 C139 0.950 . S
H154 C140 0.950 . S
H155 C141 0.950 . S
H156 C143 0.950 . S
H157 C144 0.951 . S
C158 C159 1.386 . S
C158 C160 1.383 . S
C158 H174 0.951 . S
C159 C158 1.386 . S
C159 C163 1.383 . S
C160 C158 1.383 . S
C160 C161 1.402 . S
C160 H175 0.951 . S
C161 C160 1.402 . S
C161 C162 1.375 . S
C161 C164 1.481 . S
C162 C161 1.375 . S
C162 C163 1.367 . S
C162 H176 0.951 . S
C163 C159 1.383 . S
C163 C162 1.367 . S
C163 H177 0.950 . S
C164 C161 1.481 . S
C164 C165 1.297 . S
C164 H178 0.950 . S
C165 C164 1.297 . S
C165 C166 1.479 . S
C165 H179 0.950 . S
C166 C165 1.479 . S
C166 C167 1.375 . S
C166 C172 1.404 . S
C167 C166 1.375 . S
C167 C168 1.369 . S
C167 H180 0.950 . S
C168 C167 1.369 . S
C168 C169 1.392 . S
C168 H181 0.951 . S
C169 C168 1.392 . S
C169 C171 1.384 . S
H170 C172 0.949 . S
C171 C169 1.384 . S
C171 C172 1.385 . S
C171 H173 0.950 . S
C172 C166 1.404 . S
C172 H170 0.949 . S
C172 C171 1.385 . S
H173 C171 0.950 . S
H174 C158 0.951 . S
H175 C160 0.951 . S
H176 C162 0.951 . S
H177 C163 0.950 . S
H178 C164 0.950 . S
H179 C165 0.950 . S
H180 C167 0.950 . S
H181 C168 0.951 . S
C182 C183 1.386 . S
C182 C184 1.383 . S
C182 H198 0.951 . S
C183 C182 1.386 . S
C183 C187 1.383 . S
C184 C182 1.383 . S
C184 C185 1.402 . S
C184 H199 0.951 . S
C185 C184 1.402 . S
C185 C186 1.375 . S
C185 C188 1.481 . S
C186 C185 1.375 . S
C186 C187 1.367 . S
C186 H200 0.951 . S
C187 C183 1.383 . S
C187 C186 1.367 . S
C187 H201 0.950 . S
C188 C185 1.481 . S
C188 C189 1.297 . S
C188 H202 0.950 . S
C189 C188 1.297 . S
C189 C190 1.479 . S
C189 H203 0.950 . S
C190 C189 1.479 . S
C190 C191 1.375 . S
C190 C196 1.404 . S
C191 C190 1.375 . S
C191 C192 1.369 . S
C191 H204 0.950 . S
C192 C191 1.369 . S
C192 C193 1.392 . S
C192 H205 0.951 . S
C193 C192 1.392 . S
C193 C195 1.384 . S
H194 C196 0.949 . S
C195 C193 1.384 . S
C195 C196 1.385 . S
C195 H197 0.950 . S
C196 C190 1.404 . S
C196 H194 0.949 . S
C196 C195 1.385 . S
H197 C195 0.950 . S
H198 C182 0.951 . S
H199 C184 0.951 . S
H200 C186 0.951 . S
H201 C187 0.950 . S
H202 C188 0.950 . S
H203 C189 0.950 . S
H204 C191 0.950 . S
H205 C192 0.951 . S
C206 C207 1.386 . S
C206 C208 1.383 . S
C206 H222 0.951 . S
C207 C206 1.386 . S
C207 C211 1.383 . S
C208 C206 1.383 . S
C208 C209 1.402 . S
C208 H223 0.951 . S
C209 C208 1.402 . S
C209 C210 1.375 . S
C209 C212 1.481 . S
C210 C209 1.375 . S
C210 C211 1.367 . S
C210 H224 0.951 . S
C211 C207 1.383 . S
C211 C210 1.367 . S
C211 H225 0.950 . S
C212 C209 1.481 . S
C212 C213 1.297 . S
C212 H226 0.950 . S
C213 C212 1.297 . S
C213 C214 1.479 . S
C213 H227 0.950 . S
C214 C213 1.479 . S
C214 C215 1.375 . S
C214 C220 1.404 . S
C215 C214 1.375 . S
C215 C216 1.369 . S
C215 H228 0.950 . S
C216 C215 1.369 . S
C216 C217 1.392 . S
C216 H229 0.951 . S
C217 C216 1.392 . S
C217 C219 1.384 . S
H218 C220 0.949 . S
C219 C217 1.384 . S
C219 C220 1.385 . S
C219 H221 0.950 . S
C220 C214 1.404 . S
C220 H218 0.949 . S
C220 C219 1.385 . S
H221 C219 0.950 . S
H222 C206 0.951 . S
H223 C208 0.951 . S
H224 C210 0.951 . S
H225 C211 0.950 . S
H226 C212 0.950 . S
H227 C213 0.950 . S
H228 C215 0.950 . S
H229 C216 0.951 . S
C230 C231 1.386 . S
C230 C232 1.383 . S
C230 H246 0.951 . S
C231 C230 1.386 . S
C231 C235 1.383 . S
C232 C230 1.383 . S
C232 C233 1.402 . S
C232 H247 0.951 . S
C233 C232 1.402 . S
C233 C234 1.375 . S
C233 C236 1.481 . S
C234 C233 1.375 . S
C234 C235 1.367 . S
C234 H248 0.951 . S
C235 C231 1.383 . S
C235 C234 1.367 . S
C235 H249 0.950 . S
C236 C233 1.481 . S
C236 C237 1.297 . S
C236 H250 0.950 . S
C237 C236 1.297 . S
C237 C238 1.479 . S
C237 H251 0.950 . S
C238 C237 1.479 . S
C238 C239 1.375 . S
C238 C244 1.404 . S
C239 C238 1.375 . S
C239 C240 1.369 . S
C239 H252 0.950 . S
C240 C239 1.369 . S
C240 C241 1.392 . S
C240 H253 0.951 . S
C241 C240 1.392 . S
C241 C243 1.384 . S
H242 C244 0.949 . S
C243 C241 1.384 . S
C243 C244 1.385 . S
C243 H245 0.950 . S
C244 C238 1.404 . S
C244 H242 0.949 . S
C244 C243 1.385 . S
H245 C243 0.950 . S
H246 C230 0.951 . S
H247 C232 0.951 . S
H248 C234 0.951 . S
H249 C235 0.950 . S
H250 C236 0.950 . S
H251 C237 0.950 . S
H252 C239 0.950 . S
H253 C240 0.951 . S
C63 C10 0.809 . S
C73 C33 0.710 . S
C87 C0 1.607 . S
C97 C55 1.637 . S
C111 C18 1.508 . S
C121 C42 1.483 . S
C135 C27 1.792 . S
C145 C32 1.730 . S
C159 C24 1.585 . S
C169 C31 1.633 . S
C193 C49 1.509 . S
C183 C11 1.495 . S
C207 C1 1.792 . S
C217 C58 1.761 . S
C241 C41 0.711 . S
C231 C2 0.836 . S
