# Generated by pormake.
# Topology pth, (4,4)-cn, num edge types: 1
# Building blocks:
#     Node 0, Type 0, BuildingBlock: QUQFOY_clean_sbu_3, # of connection points: 4
#     Node 1, Type 0, BuildingBlock: QUQFOY_clean_sbu_3, # of connection points: 4
#     Node 2, Type 0, BuildingBlock: QUQFOY_clean_sbu_3, # of connection points: 4
#     Node 3, Type 1, BuildingBlock: MUDLON_clean_sbu_0, # of connection points: 4
#     Node 4, Type 1, BuildingBlock: MUDLON_clean_sbu_0, # of connection points: 4
#     Node 5, Type 1, BuildingBlock: MUDLON_clean_sbu_0, # of connection points: 4
#     Edge 6, Type (0, 1), BuildingBlock: EYOCIG_clean_linker_4, # of connection points: 2
#     Edge 7, Type (0, 1), BuildingBlock: EYOCIG_clean_linker_4, # of connection points: 2
#     Edge 8, Type (0, 1), BuildingBlock: EYOCIG_clean_linker_4, # of connection points: 2
#     Edge 9, Type (0, 1), BuildingBlock: EYOCIG_clean_linker_4, # of connection points: 2
#     Edge 10, Type (0, 1), BuildingBlock: EYOCIG_clean_linker_4, # of connection points: 2
#     Edge 11, Type (0, 1), BuildingBlock: EYOCIG_clean_linker_4, # of connection points: 2
#     Edge 12, Type (0, 1), BuildingBlock: EYOCIG_clean_linker_4, # of connection points: 2
#     Edge 13, Type (0, 1), BuildingBlock: EYOCIG_clean_linker_4, # of connection points: 2
#     Edge 14, Type (0, 1), BuildingBlock: EYOCIG_clean_linker_4, # of connection points: 2
#     Edge 15, Type (0, 1), BuildingBlock: EYOCIG_clean_linker_4, # of connection points: 2
#     Edge 16, Type (0, 1), BuildingBlock: EYOCIG_clean_linker_4, # of connection points: 2
#     Edge 17, Type (0, 1), BuildingBlock: EYOCIG_clean_linker_4, # of connection points: 2
# Relax obj value: 0.015
# Max RMSD: 0.070
# Mean RMSD: 0.054
data_MOF--net-pth--node1-QUQFOY_clean_sbu_3--node2-MUDLON_clean_sbu_0--edge1-EYOCIG_clean_linker_4
_symmetry_space_group_name_H-M    P1
_symmetry_Int_Tables_number       1
_symmetry_cell_setting            triclinic
loop_
_symmetry_equiv_pos_as_xyz
'x, y, z'
_cell_length_a     18.904747
_cell_length_b     18.71707
_cell_length_c     50.644994
_cell_angle_alpha  90.110689
_cell_angle_beta   90.86234
_cell_angle_gamma 121.00298
loop_
_atom_site_label
_atom_site_type_symbol
_atom_site_fract_x
_atom_site_fract_y
_atom_site_fract_z
_atom_type_partial_charge
C0 C 0.00294 0.2303 0.08812 0.0
O1 O 0.95854 0.23231 0.06948 0.0
Cd2 Cd 0.93297 0.15729 0.02872 0.0
O3 O 0.03214 0.18249 0.08712 0.0
Cd4 Cd 0.02688 0.07456 0.05717 0.0
C5 C 0.13525 0.22835 0.01338 0.0
O6 O 0.88768 0.01531 0.03826 0.0
O7 O 0.9683 0.98302 0.0184 0.0
O8 O -0.00887 -0.01455 0.09556 0.0
C9 C 0.89743 0.97406 0.02029 0.0
O10 O 0.06795 0.22608 0.00846 0.0
C11 C 0.04912 0.97068 0.09343 0.0
O12 O 0.14062 0.18294 0.03109 0.0
O13 O 0.09865 0.00469 0.07451 0.0
C14 C 0.17704 0.12754 0.42078 0.0
O15 O 0.21995 0.16857 0.40131 0.0
Cd16 Cd 0.16186 0.18217 0.3608 0.0
O17 O 0.09901 0.09484 0.4206 0.0
Cd18 Cd -0.01006 0.08885 0.39092 0.0
C19 C 0.02703 0.97348 0.34805 0.0
O20 O 0.06745 0.22637 0.37099 0.0
O21 O 0.95119 0.13795 0.35182 0.0
O22 O 0.9429 0.13175 0.42884 0.0
C23 C 0.01295 0.21143 0.35344 0.0
O24 O 0.09163 0.04177 0.34225 0.0
C25 C 0.86832 0.07306 0.42702 0.0
O26 O -0.02125 0.96957 0.36606 0.0
O27 O 0.84915 0.01901 0.40879 0.0
C28 C 0.88641 0.13531 0.69214 0.0
O29 O 0.88376 0.17613 0.71171 0.0
Cd30 Cd 0.95774 0.19486 0.75231 0.0
O31 O 0.93332 0.10518 0.69233 0.0
Cd32 Cd 0.03893 0.10416 0.722 0.0
C33 C 0.88814 -0.01123 0.76554 0.0
O34 O 0.09779 0.24281 0.74185 0.0
O35 O 0.13137 0.16041 0.76069 0.0
O36 O 0.12687 0.14503 0.68365 0.0
C37 C 0.14002 0.23204 0.7593 0.0
O38 O 0.89035 0.05607 0.77128 0.0
C39 C 0.14283 0.08725 0.68531 0.0
O40 O 0.93252 -0.01443 0.74739 0.0
O41 O 0.10939 0.03498 0.70377 0.0
Mg42 Mg 0.04072 0.5987 0.22494 0.0
C43 C 0.01446 0.47572 0.26541 0.0
O44 O 0.93876 0.45501 0.25889 0.0
C45 C 0.02282 0.70098 0.18409 0.0
O46 O 0.94553 0.64654 0.18934 0.0
C47 C 0.01892 0.47275 0.18581 0.0
O48 O 0.94266 0.44669 0.19244 0.0
O49 O 0.07763 0.53841 0.19645 0.0
O50 O 0.07487 0.53736 0.25437 0.0
O51 O 0.06144 0.68982 0.25517 0.0
C52 C -0.00236 0.67965 0.26658 0.0
O53 O 0.92486 0.61628 0.25983 0.0
O54 O 0.08024 0.69788 0.19639 0.0
Mg55 Mg 0.51519 0.09748 0.5563 0.0
C56 C 0.39485 0.07688 0.5157 0.0
O57 O 0.375 -0.00013 0.52039 0.0
C58 C 0.62015 0.07784 0.59476 0.0
O59 O 0.56715 0.00073 0.58743 0.0
C60 C 0.38674 0.0649 0.59552 0.0
O61 O 0.36016 -0.0107 0.58655 0.0
O62 O 0.45242 0.12569 0.58649 0.0
O63 O 0.45555 0.13664 0.52805 0.0
O64 O 0.60635 0.1224 0.52647 0.0
C65 C 0.60003 0.06005 0.51427 0.0
O66 O 0.5395 0.98484 0.51975 0.0
O67 O 0.61498 0.13719 0.58477 0.0
Mg68 Mg 0.49697 0.62717 0.88965 0.0
C69 C 0.39562 0.50821 0.84923 0.0
O70 O 0.45258 0.49041 0.85526 0.0
C71 C 0.62149 0.7274 0.92864 0.0
O72 O 0.63881 0.67117 0.92093 0.0
C73 C 0.42216 0.48102 0.92887 0.0
O74 O 0.47326 0.4613 0.9187 0.0
O75 O 0.42068 0.54399 0.9206 0.0
O76 O 0.396 0.56867 0.86099 0.0
O77 O 0.58314 0.70562 0.85974 0.0
C78 C 0.63369 0.69235 0.84779 0.0
O79 O 0.63851 0.62667 0.85339 0.0
O80 O 0.55957 0.72755 0.91839 0.0
C81 C 0.03231 0.33041 0.12879 0.0
C82 C 0.02071 0.2836 0.11068 0.0
C83 C 0.03814 0.3845 0.14922 0.0
C84 C 0.03441 0.42797 0.16602 0.0
C85 C 0.76102 0.07115 0.46026 0.0
C86 C 0.80813 0.06987 0.44473 0.0
C87 C 0.70707 0.07292 0.47891 0.0
C88 C 0.65996 0.07048 0.49518 0.0
C89 C 0.7866 0.85988 0.79432 0.0
C90 C 0.83423 0.91569 0.78035 0.0
C91 C 0.73186 0.79976 0.81229 0.0
C92 C 0.68702 0.75077 0.8285 0.0
C93 C 0.05705 0.86949 0.12805 0.0
C94 C 0.05659 0.9161 0.1117 0.0
C95 C 0.05124 0.81301 0.14762 0.0
C96 C 0.04133 0.76312 0.1644 0.0
C97 C 0.25648 0.10935 0.46091 0.0
C98 C 0.21767 0.11608 0.44304 0.0
C99 C 0.30523 0.10127 0.48063 0.0
C100 C 0.34746 0.09243 0.49676 0.0
C101 C 0.2342 0.34977 0.79408 0.0
C102 C 0.19097 0.29662 0.77807 0.0
C103 C 0.28626 0.4098 0.8132 0.0
C104 C 0.33355 0.45765 0.82977 0.0
C105 C 0.78875 0.11346 0.65136 0.0
C106 C 0.83425 0.12206 0.66958 0.0
C107 C 0.73249 0.10373 0.63108 0.0
C108 C 0.68191 0.09387 0.61447 0.0
C109 C 0.78019 0.88261 0.98507 0.0
C110 C 0.83289 0.92466 0.00134 0.0
C111 C 0.72074 0.83235 0.96556 0.0
C112 C 0.67275 0.78679 0.9487 0.0
C113 C 0.00555 0.84508 0.31993 0.0
C114 C 0.01023 0.89997 0.33374 0.0
C115 C 0.00502 0.78674 0.3021 0.0
C116 C 0.00376 0.739 0.28582 0.0
C117 C 0.24465 0.08261 0.65111 0.0
C118 C 0.19794 0.08279 0.66705 0.0
C119 C 0.29815 0.08221 0.63199 0.0
C120 C 0.34086 0.07781 0.61538 0.0
C121 C 0.25984 0.33156 0.98382 0.0
C122 C 0.20578 0.28323 -0.00195 0.0
C123 C 0.31814 0.38601 0.96546 0.0
C124 C 0.36544 0.42965 0.94877 0.0
C125 C 0.02889 0.32496 0.31937 0.0
C126 C 0.02287 0.27409 0.33513 0.0
C127 C 0.03127 0.38185 0.30066 0.0
C128 C 0.02758 0.42699 0.28449 0.0
loop_
_geom_bond_atom_site_label_1
_geom_bond_atom_site_label_2
_geom_bond_distance
_geom_bond_site_symmetry_2
_ccdc_geom_bond_type
C0 O1 1.306 1_455 S
C0 O3 1.160 . S
O1 C0 1.306 1_655 S
O1 Cd2 2.228 . S
Cd2 O1 2.228 . S
Cd2 O6 2.273 . S
Cd2 O10 2.277 1_655 S
O3 C0 1.160 . S
O3 Cd4 2.203 . S
Cd4 O3 2.203 . S
Cd4 O6 2.411 1_455 S
Cd4 O7 2.333 1_445 S
Cd4 O8 2.352 1_445 S
Cd4 O12 2.277 . S
Cd4 O13 2.356 . S
C5 O10 1.209 . S
C5 O12 1.226 . S
O6 Cd2 2.273 . S
O6 Cd4 2.411 1_655 S
O6 C9 1.320 . S
O7 Cd4 2.333 1_665 S
O7 C9 1.214 1_565 S
O8 Cd4 2.352 1_665 S
O8 C11 1.259 1_655 S
C9 O6 1.320 . S
C9 O7 1.214 1_545 S
O10 Cd2 2.277 1_455 S
O10 C5 1.209 . S
C11 O8 1.259 1_455 S
C11 O13 1.282 1_565 S
O12 Cd4 2.277 . S
O12 C5 1.226 . S
O13 Cd4 2.356 . S
O13 C11 1.282 1_545 S
C14 O15 1.306 . S
C14 O17 1.160 . S
O15 C14 1.306 . S
O15 Cd16 2.228 . S
Cd16 O15 2.228 . S
Cd16 O20 2.273 . S
Cd16 O24 2.277 . S
O17 C14 1.160 . S
O17 Cd18 2.203 . S
Cd18 O17 2.203 . S
Cd18 O20 2.411 . S
Cd18 O21 2.333 1_455 S
Cd18 O22 2.352 1_455 S
Cd18 O26 2.277 1_445 S
Cd18 O27 2.356 1_455 S
C19 O24 1.209 1_565 S
C19 O26 1.226 1_455 S
O20 Cd16 2.273 . S
O20 Cd18 2.411 . S
O20 C23 1.320 . S
O21 Cd18 2.333 1_655 S
O21 C23 1.214 1_655 S
O22 Cd18 2.352 1_655 S
O22 C25 1.258 . S
C23 O20 1.320 . S
C23 O21 1.214 1_455 S
O24 Cd16 2.277 . S
O24 C19 1.209 1_545 S
C25 O22 1.258 . S
C25 O27 1.282 . S
O26 Cd18 2.277 1_665 S
O26 C19 1.226 1_655 S
O27 Cd18 2.356 1_655 S
O27 C25 1.282 . S
C28 O29 1.306 . S
C28 O31 1.160 . S
O29 C28 1.306 . S
O29 Cd30 2.228 . S
Cd30 O29 2.228 . S
Cd30 O34 2.273 1_655 S
Cd30 O38 2.277 . S
O31 C28 1.160 . S
O31 Cd32 2.203 1_655 S
Cd32 O31 2.203 1_455 S
Cd32 O34 2.411 . S
Cd32 O35 2.333 . S
Cd32 O36 2.352 . S
Cd32 O40 2.277 1_445 S
Cd32 O41 2.356 . S
C33 O38 1.202 1_565 S
C33 O40 1.230 . S
O34 Cd30 2.273 1_455 S
O34 Cd32 2.411 . S
O34 C37 1.320 . S
O35 Cd32 2.333 . S
O35 C37 1.214 . S
O36 Cd32 2.352 . S
O36 C39 1.258 . S
C37 O34 1.320 . S
C37 O35 1.214 . S
O38 Cd30 2.277 . S
O38 C33 1.202 1_545 S
C39 O36 1.258 . S
C39 O41 1.282 . S
O40 Cd32 2.277 1_665 S
O40 C33 1.230 . S
O41 Cd32 2.356 . S
O41 C39 1.282 . S
Mg42 O49 2.141 . S
Mg42 O50 2.048 . S
Mg42 O51 2.048 . S
Mg42 O54 2.141 . S
C43 O44 1.313 1_455 S
C43 O50 1.195 . S
O44 C43 1.313 1_655 S
C45 O46 1.245 1_455 S
C45 O54 1.289 . S
O46 C45 1.245 1_655 S
C47 O48 1.245 1_455 S
C47 O49 1.289 . S
O48 C47 1.245 1_655 S
O49 Mg42 2.141 . S
O49 C47 1.289 . S
O50 Mg42 2.048 . S
O50 C43 1.195 . S
O51 Mg42 2.048 . S
O51 C52 1.195 . S
C52 O51 1.195 . S
C52 O53 1.313 1_455 S
O53 C52 1.313 1_655 S
O54 Mg42 2.141 . S
O54 C45 1.289 . S
Mg55 O62 2.141 . S
Mg55 O63 2.048 . S
Mg55 O64 2.048 . S
Mg55 O67 2.141 . S
C56 O57 1.313 . S
C56 O63 1.195 . S
O57 C56 1.313 . S
C58 O59 1.245 . S
C58 O67 1.289 . S
O59 C58 1.245 . S
C60 O61 1.245 . S
C60 O62 1.289 . S
O61 C60 1.245 . S
O62 Mg55 2.141 . S
O62 C60 1.289 . S
O63 Mg55 2.048 . S
O63 C56 1.195 . S
O64 Mg55 2.048 . S
O64 C65 1.195 . S
C65 O64 1.195 . S
C65 O66 1.313 . S
O66 C65 1.313 . S
O67 Mg55 2.141 . S
O67 C58 1.289 . S
Mg68 O75 2.141 . S
Mg68 O76 2.048 . S
Mg68 O77 2.048 . S
Mg68 O80 2.141 . S
C69 O70 1.313 . S
C69 O76 1.195 . S
O70 C69 1.313 . S
C71 O72 1.245 . S
C71 O80 1.289 . S
O72 C71 1.245 . S
C73 O74 1.245 . S
C73 O75 1.289 . S
O74 C73 1.245 . S
O75 Mg68 2.141 . S
O75 C73 1.289 . S
O76 Mg68 2.048 . S
O76 C69 1.195 . S
O77 Mg68 2.048 . S
O77 C78 1.195 . S
C78 O77 1.195 . S
C78 O79 1.313 . S
O79 C78 1.313 . S
O80 Mg68 2.141 . S
O80 C71 1.289 . S
C81 C82 1.170 . S
C81 C83 1.380 . S
C82 C81 1.170 . S
C83 C81 1.380 . S
C83 C84 1.170 . S
C84 C83 1.170 . S
C85 C86 1.170 . S
C85 C87 1.380 . S
C86 C85 1.170 . S
C87 C85 1.380 . S
C87 C88 1.170 . S
C88 C87 1.170 . S
C89 C90 1.170 . S
C89 C91 1.380 . S
C90 C89 1.170 . S
C91 C89 1.380 . S
C91 C92 1.170 . S
C92 C91 1.170 . S
C93 C94 1.170 . S
C93 C95 1.380 . S
C94 C93 1.170 . S
C95 C93 1.380 . S
C95 C96 1.170 . S
C96 C95 1.170 . S
C97 C98 1.170 . S
C97 C99 1.380 . S
C98 C97 1.170 . S
C99 C97 1.380 . S
C99 C100 1.170 . S
C100 C99 1.170 . S
C101 C102 1.170 . S
C101 C103 1.380 . S
C102 C101 1.170 . S
C103 C101 1.380 . S
C103 C104 1.170 . S
C104 C103 1.170 . S
C105 C106 1.170 . S
C105 C107 1.380 . S
C106 C105 1.170 . S
C107 C105 1.380 . S
C107 C108 1.170 . S
C108 C107 1.170 . S
C109 C110 1.170 1_556 S
C109 C111 1.380 . S
C110 C109 1.170 1_554 S
C111 C109 1.380 . S
C111 C112 1.170 . S
C112 C111 1.170 . S
C113 C114 1.170 . S
C113 C115 1.380 . S
C114 C113 1.170 . S
C115 C113 1.380 . S
C115 C116 1.170 . S
C116 C115 1.170 . S
C117 C118 1.170 . S
C117 C119 1.380 . S
C118 C117 1.170 . S
C119 C117 1.380 . S
C119 C120 1.170 . S
C120 C119 1.170 . S
C121 C122 1.170 1_556 S
C121 C123 1.380 . S
C122 C121 1.170 1_554 S
C123 C121 1.380 . S
C123 C124 1.170 . S
C124 C123 1.170 . S
C125 C126 1.170 . S
C125 C127 1.380 . S
C126 C125 1.170 . S
C127 C125 1.380 . S
C127 C128 1.170 . S
C128 C127 1.170 . S
C84 C47 1.418 . S
C82 C0 1.420 . S
C86 C25 1.490 . S
C88 C65 1.484 . S
C90 C33 1.511 . S
C92 C78 1.488 . S
C94 C11 1.392 . S
C96 C45 1.370 . S
C100 C56 1.490 . S
C98 C14 1.490 . S
C102 C37 1.504 . S
C104 C69 1.499 . S
C108 C58 1.421 . S
C106 C28 1.428 . S
C110 C9 1.434 1_565 S
C112 C71 1.419 . S
C116 C52 1.519 . S
C114 C19 1.516 . S
C120 C60 1.426 . S
C118 C39 1.430 . S
C124 C73 1.445 . S
C122 C5 1.445 . S
C126 C23 1.530 . S
C128 C43 1.531 . S
