# Generated by pormake.
# Topology rtl, (3,6)-cn, num edge types: 1
# Building blocks:
#     Node 0, Type 0, BuildingBlock: WUSLED_clean_sbu_0, # of connection points: 3
#     Node 1, Type 0, BuildingBlock: WUSLED_clean_sbu_0, # of connection points: 3
#     Node 2, Type 0, BuildingBlock: WUSLED_clean_sbu_0, # of connection points: 3
#     Node 3, Type 0, BuildingBlock: WUSLED_clean_sbu_0, # of connection points: 3
#     Node 4, Type 1, BuildingBlock: CIFDUS_clean_sbu_1, # of connection points: 6
#     Node 5, Type 1, BuildingBlock: CIFDUS_clean_sbu_1, # of connection points: 6
#     Edge 6, Type (0, 1), None
#     Edge 7, Type (0, 1), None
#     Edge 8, Type (0, 1), None
#     Edge 9, Type (0, 1), None
#     Edge 10, Type (0, 1), None
#     Edge 11, Type (0, 1), None
#     Edge 12, Type (0, 1), None
#     Edge 13, Type (0, 1), None
#     Edge 14, Type (0, 1), None
#     Edge 15, Type (0, 1), None
#     Edge 16, Type (0, 1), None
#     Edge 17, Type (0, 1), None
# Relax obj value: 0.026
# Max RMSD: 0.061
# Mean RMSD: 0.045
data_MOF--net-rtl--node1-WUSLED_clean_sbu_0--node2-CIFDUS_clean_sbu_1--edge1-none
_symmetry_space_group_name_H-M    P1
_symmetry_Int_Tables_number       1
_symmetry_cell_setting            triclinic
loop_
_symmetry_equiv_pos_as_xyz
'x, y, z'
_cell_length_a     23.36873
_cell_length_b     24.704926
_cell_length_c     17.221093
_cell_angle_alpha  90.346715
_cell_angle_beta   99.518373
_cell_angle_gamma 89.007607
loop_
_atom_site_label
_atom_site_type_symbol
_atom_site_fract_x
_atom_site_fract_y
_atom_site_fract_z
_atom_type_partial_charge
C0 C 0.19919 1.01162 0.29852 0.0
C1 C 0.1695 0.05968 0.31237 0.0
C2 C 0.15073 1.02423 0.437 0.0
C3 C 0.14557 0.06612 0.38135 0.0
C4 C 0.18625 0.97892 0.42691 0.0
C5 C 0.21027 0.9726 0.35811 0.0
U6 U 0.26387 0.92876 0.14049 0.0
O7 O 0.35002 0.90363 0.20225 0.0
O8 O 0.27773 0.84741 0.19344 0.0
C9 C 0.33421 0.85341 0.21084 0.0
C10 C 0.20856 0.99909 0.21776 0.0
C11 C 0.36993 0.81074 0.17987 0.0
C12 C 0.39078 0.71489 0.15786 0.0
C13 C 0.36336 0.75561 0.1968 0.0
C14 C 0.43531 0.78427 0.09036 0.0
C15 C 0.42515 0.72921 0.10194 0.0
C16 C 0.40775 0.82447 0.12804 0.0
C17 C 0.20777 0.96304 0.92552 0.0
C18 C 0.16336 0.9762 0.78871 0.0
C19 C 0.13717 1.03532 0.89062 0.0
C20 C 0.17511 1.00682 0.94753 0.0
C21 C 0.13084 1.02041 0.81055 0.0
C22 C 0.20172 0.94778 0.84598 0.0
C23 C 0.24555 0.93127 0.98573 0.0
O24 O 0.18615 0.95343 0.18839 0.0
O25 O 0.26039 1.00782 0.20066 0.0
O26 O 0.2876 0.95777 1.02938 0.0
O27 O 0.21776 0.89942 1.02696 0.0
H28 H 0.16043 0.09021 0.26688 0.0
H29 H 0.11749 0.10084 0.3864 0.0
H30 H 0.19048 0.9458 0.46854 0.0
H31 H 0.23318 0.93525 0.34862 0.0
H32 H 0.38164 0.67279 0.16698 0.0
H33 H 0.3346 0.74405 0.23692 0.0
H34 H 0.4616 0.79648 0.04736 0.0
H35 H 0.41405 0.86627 0.11327 0.0
H36 H 0.15974 0.96406 0.72756 0.0
H37 H 0.11254 0.06902 0.90963 0.0
H38 H 0.1787 1.01872 1.00881 0.0
H39 H 0.22643 0.9137 0.82827 0.0
C40 C 0.6766 0.6356 0.78118 0.0
C41 C 0.64691 0.58693 0.78446 0.0
C42 C 0.62449 0.61142 0.91311 0.0
C43 C 0.62117 0.57478 0.85002 0.0
C44 C 0.65951 0.65726 0.91323 0.0
C45 C 0.68545 0.66935 0.84769 0.0
U46 U 0.74115 0.72086 0.62266 0.0
O47 O 0.75971 0.80337 0.67003 0.0
O48 O 0.82932 0.74217 0.6785 0.0
C49 C 0.81594 0.7937 0.68593 0.0
C50 C 0.68769 0.65377 0.70363 0.0
C51 C 0.85335 0.83223 0.65237 0.0
C52 C 0.89998 0.92046 0.6516 0.0
C53 C 0.86425 0.88446 0.68445 0.0
C54 C 0.91485 0.85163 0.55603 0.0
C55 C 0.92529 0.90441 0.58631 0.0
C56 C 0.87909 0.8165 0.58777 0.0
C57 C 0.67862 0.68125 0.41067 0.0
C58 C 0.63357 0.66483 0.27504 0.0
C59 C 0.6134 0.60602 0.37905 0.0
C60 C 0.64963 0.6367 0.43466 0.0
C61 C 0.60524 0.61951 0.29848 0.0
C62 C 0.67007 0.69533 0.33077 0.0
C63 C 0.7171 0.71393 0.46826 0.0
O64 O 0.73855 0.64262 0.68379 0.0
O65 O 0.66665 0.70167 0.67968 0.0
O66 O 0.69053 0.74781 0.50993 0.0
O67 O 0.76076 0.68779 0.51071 0.0
H68 H 0.63912 0.5606 0.73336 0.0
H69 H 0.59288 0.54024 0.84696 0.0
H70 H 0.66154 0.68677 0.96037 0.0
H71 H 0.70805 0.70716 0.84637 0.0
H72 H 0.9066 0.96082 0.67592 0.0
H73 H 0.84471 0.89753 0.73436 0.0
H74 H 0.93359 0.83721 0.50609 0.0
H75 H 0.8715 0.77684 0.56122 0.0
H76 H 0.62835 0.67621 0.21359 0.0
H77 H 0.59197 0.57155 0.39931 0.0
H78 H 0.65525 0.62553 0.49624 0.0
H79 H 0.6919 0.72986 0.31142 0.0
C80 C 0.82971 0.17373 0.25136 0.0
C81 C 0.86107 0.12929 0.22827 0.0
C82 C 0.90665 0.11486 0.36449 0.0
C83 C 0.89908 0.09998 0.28438 0.0
C84 C 0.87543 0.15975 0.38715 0.0
C85 C 0.83717 0.18888 0.3309 0.0
U86 U 0.77113 0.21104 0.03826 0.0
O87 O 0.68424 0.23537 0.97819 0.0
O88 O 0.75502 0.29327 0.98862 0.0
C89 C 0.6987 0.28616 0.97129 0.0
C90 C 0.79138 0.20623 0.19271 0.0
C91 C 0.66212 0.32632 1.00551 0.0
C92 C 0.60706 0.3501 0.10834 0.0
C93 C 0.64066 0.31307 0.074 0.0
C94 C 0.61542 0.41585 1.00729 0.0
C95 C 0.59467 0.40238 0.07672 0.0
C96 C 0.64905 0.37789 0.97189 0.0
C97 C 0.83543 0.1276 0.87919 0.0
C98 C 0.84903 0.15777 0.74995 0.0
C99 C 0.88845 0.07077 0.79848 0.0
C100 C 0.86452 0.07884 0.86711 0.0
C101 C 0.88404 0.11179 0.74168 0.0
C102 C 0.8249 0.16569 0.81832 0.0
C103 C 0.82616 0.14152 0.95944 0.0
O104 O 0.81849 0.23896 0.15187 0.0
O105 O 0.74888 0.18027 0.14918 0.0
O106 O 0.77474 0.13228 0.97749 0.0
O107 O 0.848 0.18779 0.98733 0.0
H108 H 0.85633 0.11745 0.16686 0.0
H109 H 0.92263 0.06573 0.26484 0.0
H110 H 0.88009 0.1721 0.4483 0.0
H111 H 0.81357 0.22344 0.34945 0.0
H112 H 0.59163 0.33755 0.1613 0.0
H113 H 0.65024 0.27396 0.10175 0.0
H114 H 0.60699 0.45572 0.9817 0.0
H115 H 0.66547 0.38898 0.91904 0.0
H116 H 0.84567 0.1903 0.70742 0.0
H117 H 0.91622 1.0356 0.79462 0.0
H118 H 0.87319 0.04905 0.91369 0.0
H119 H 0.8025 0.20354 0.8265 0.0
C120 C 0.31854 0.50302 0.36314 0.0
C121 C 0.34446 0.55243 0.35078 0.0
C122 C 0.36646 0.51961 0.2254 0.0
C123 C 0.36811 0.56085 0.28218 0.0
C124 C 0.33423 0.47293 0.23383 0.0
C125 C 0.31055 0.46458 0.30226 0.0
U126 U 0.25705 0.41941 0.52127 0.0
O127 O 0.17121 0.39607 0.45918 0.0
O128 O 0.24355 0.33753 0.46981 0.0
C129 C 0.187 0.34501 0.45325 0.0
C130 C 0.31 0.48907 0.44361 0.0
C131 C 0.1522 0.30587 0.48953 0.0
C132 C 0.11863 0.21392 0.50581 0.0
C133 C 0.14747 0.25135 0.46495 0.0
C134 C 0.09733 0.28601 0.59306 0.0
C135 C 0.09451 0.23093 0.57158 0.0
C136 C 0.12626 0.32263 0.55354 0.0
C137 C 0.31205 0.45321 0.73748 0.0
C138 C 0.35151 0.46897 0.87572 0.0
C139 C 0.38006 0.52516 0.77412 0.0
C140 C 0.3449 0.49577 0.71626 0.0
C141 C 0.38334 0.51253 0.85445 0.0
C142 C 0.31577 0.43958 0.81733 0.0
C143 C 0.27561 0.42182 0.67626 0.0
O144 O 0.33331 0.4427 0.47099 0.0
O145 O 0.25845 0.49857 0.46231 0.0
O146 O 0.23295 0.44874 0.63289 0.0
O147 O 0.30454 0.39019 0.63446 0.0
H148 H 0.35103 0.58261 0.39719 0.0
H149 H 0.39357 0.59667 0.2783 0.0
H150 H 0.33284 0.44023 0.19135 0.0
H151 H 0.29054 0.42625 0.31041 0.0
H152 H 0.11744 0.17177 0.48834 0.0
H153 H 0.16753 0.2375 0.41588 0.0
H154 H 0.07874 0.30098 0.64286 0.0
H155 H 0.1295 0.36402 0.5748 0.0
H156 H 0.35297 0.4587 0.93709 0.0
H157 H 0.40461 0.55822 0.7558 0.0
H158 H 0.34318 0.50637 0.65492 0.0
H159 H 0.29084 0.40642 0.83442 0.0
O160 O 0.95786 0.09912 0.49484 0.0
Mn161 Mn 0.01605 0.06701 0.58783 0.0
O162 O 0.9645 1.03714 0.40272 0.0
Mn163 Mn 1.00117 0.98664 0.47415 0.0
O164 O 0.07482 1.0347 0.6817 0.0
O165 O 0.05089 0.14491 0.60602 0.0
Mn166 Mn 0.03698 0.14965 0.70456 0.0
O167 O 0.95091 0.07581 0.66057 0.0
O168 O 0.0776 0.09984 0.77225 0.0
O169 O 0.08169 0.0598 0.51525 0.0
O170 O 0.07889 0.97513 0.47958 0.0
O171 O 0.07277 0.21078 0.69719 0.0
O172 O 0.96002 0.15882 0.70713 0.0
C173 C 0.95813 0.94139 0.54238 0.0
C174 C 0.9455 0.08241 0.42372 0.0
C175 C 0.09213 0.053 0.75137 0.0
C176 C 0.07197 0.19344 0.62574 0.0
C177 C 0.93065 0.11672 0.69423 0.0
C178 C 0.10571 1.01869 0.48732 0.0
O179 O 0.97882 0.98906 0.56894 0.0
O180 O 0.9641 0.92573 0.47214 0.0
O181 O 0.55508 0.6002 0.1682 0.0
Mn182 Mn 0.4994 0.56541 0.07479 0.0
O183 O 0.55452 0.53912 0.26192 0.0
Mn184 Mn 0.52087 0.48716 0.19197 0.0
O185 O 0.44319 0.53013 0.98005 0.0
O186 O 0.46239 0.64249 0.05421 0.0
Mn187 Mn 0.46489 0.64726 0.95206 0.0
O188 O 0.56403 0.57652 1.00232 0.0
O189 O 0.42042 0.59702 0.89302 0.0
O190 O 0.43323 0.5568 0.14643 0.0
O191 O 0.44443 0.47364 0.18928 0.0
O192 O 0.43033 0.70943 0.96939 0.0
O193 O 0.53938 0.65235 0.93489 0.0
C194 C 0.56414 0.44127 0.12275 0.0
C195 C 0.56921 0.58489 0.23979 0.0
C196 C 0.41702 0.54823 0.91342 0.0
C197 C 0.43897 0.69127 0.04102 0.0
C198 C 0.57531 0.61456 0.95656 0.0
C199 C 0.41338 0.51549 0.17757 0.0
O200 O 0.54037 0.48818 0.09549 0.0
O201 O 0.56197 0.42737 0.19469 0.0
loop_
_geom_bond_atom_site_label_1
_geom_bond_atom_site_label_2
_geom_bond_distance
_geom_bond_site_symmetry_2
_ccdc_geom_bond_type
C0 C1 1.264 1_565 S
C0 C5 1.479 . S
C0 C10 1.465 . S
C1 C0 1.264 1_545 S
C1 C3 1.339 . S
C1 H28 0.931 . S
C2 C3 1.395 1_565 S
C2 C4 1.320 . S
C3 C1 1.339 . S
C3 C2 1.395 1_545 S
C3 H29 0.929 . S
C4 C2 1.320 . S
C4 C5 1.405 . S
C4 H30 0.930 . S
C5 C0 1.479 . S
C5 C4 1.405 . S
C5 H31 0.931 . S
U6 O7 2.454 . S
U6 O8 2.458 . S
U6 C9 2.984 . S
U6 C10 2.847 . S
U6 C23 2.882 1_554 S
U6 O24 2.441 . S
U6 O25 2.420 . S
U6 O26 2.455 1_554 S
U6 O27 2.449 . S
O7 U6 2.454 . S
O7 C9 1.353 . S
O8 U6 2.458 . S
O8 C9 1.286 . S
C9 U6 2.984 . S
C9 O7 1.353 . S
C9 O8 1.286 . S
C9 C11 1.363 . S
C10 C0 1.465 . S
C10 U6 2.847 . S
C10 O24 1.249 . S
C10 O25 1.202 . S
C11 C9 1.363 . S
C11 C13 1.408 . S
C11 C16 1.342 . S
C12 C13 1.310 . S
C12 C15 1.461 . S
C12 H32 0.932 . S
C13 C11 1.408 . S
C13 C12 1.310 . S
C13 H33 0.930 . S
C14 C15 1.474 . S
C14 C16 1.285 . S
C14 H34 0.929 1_554 S
C15 C12 1.461 . S
C15 C14 1.474 . S
C16 C11 1.342 . S
C16 C14 1.285 . S
C16 H35 0.930 1_554 S
C17 C20 1.424 1_565 S
C17 C22 1.245 . S
C17 C23 1.428 . S
C18 C21 1.260 1_565 S
C18 C22 1.477 . S
C18 H36 0.932 . S
C19 C20 1.384 . S
C19 C21 1.479 . S
C19 H37 0.929 . S
C20 C17 1.424 1_545 S
C20 C19 1.384 . S
C20 H38 0.928 . S
C21 C18 1.260 1_545 S
C21 C19 1.479 . S
C22 C17 1.245 . S
C22 C18 1.477 . S
C22 H39 0.932 . S
C23 U6 2.882 1_556 S
C23 C17 1.428 . S
C23 O26 1.301 . S
C23 O27 1.282 1_556 S
O24 U6 2.441 . S
O24 C10 1.249 . S
O25 U6 2.420 . S
O25 C10 1.202 . S
O26 U6 2.455 1_556 S
O26 C23 1.301 . S
O27 U6 2.449 . S
O27 C23 1.282 1_554 S
H28 C1 0.931 . S
H29 C3 0.929 . S
H30 C4 0.930 . S
H31 C5 0.931 . S
H32 C12 0.932 . S
H33 C13 0.930 . S
H34 C14 0.929 1_556 S
H35 C16 0.930 1_556 S
H36 C18 0.932 . S
H37 C19 0.929 . S
H38 C20 0.928 . S
H39 C22 0.932 . S
C40 C41 1.264 . S
C40 C45 1.479 . S
C40 C50 1.465 . S
C41 C40 1.264 . S
C41 C43 1.339 . S
C41 H68 0.931 . S
C42 C43 1.395 . S
C42 C44 1.320 . S
C43 C41 1.339 . S
C43 C42 1.395 . S
C43 H69 0.929 . S
C44 C42 1.320 . S
C44 C45 1.405 . S
C44 H70 0.930 . S
C45 C40 1.479 . S
C45 C44 1.405 . S
C45 H71 0.931 . S
U46 O47 2.454 . S
U46 O48 2.458 . S
U46 C49 2.984 . S
U46 C50 2.847 . S
U46 C63 2.882 . S
U46 O64 2.441 . S
U46 O65 2.420 . S
U46 O66 2.455 . S
U46 O67 2.449 . S
O47 U46 2.454 . S
O47 C49 1.353 . S
O48 U46 2.458 . S
O48 C49 1.286 . S
C49 U46 2.984 . S
C49 O47 1.353 . S
C49 O48 1.286 . S
C49 C51 1.363 . S
C50 C40 1.465 . S
C50 U46 2.847 . S
C50 O64 1.249 . S
C50 O65 1.202 . S
C51 C49 1.363 . S
C51 C53 1.408 . S
C51 C56 1.342 . S
C52 C53 1.310 . S
C52 C55 1.461 . S
C52 H72 0.932 . S
C53 C51 1.408 . S
C53 C52 1.310 . S
C53 H73 0.930 . S
C54 C55 1.474 . S
C54 C56 1.285 . S
C54 H74 0.929 . S
C55 C52 1.461 . S
C55 C54 1.474 . S
C56 C51 1.342 . S
C56 C54 1.285 . S
C56 H75 0.930 . S
C57 C60 1.424 . S
C57 C62 1.245 . S
C57 C63 1.428 . S
C58 C61 1.260 . S
C58 C62 1.477 . S
C58 H76 0.932 . S
C59 C60 1.384 . S
C59 C61 1.479 . S
C59 H77 0.929 . S
C60 C57 1.424 . S
C60 C59 1.384 . S
C60 H78 0.928 . S
C61 C58 1.260 . S
C61 C59 1.479 . S
C62 C57 1.245 . S
C62 C58 1.477 . S
C62 H79 0.932 . S
C63 U46 2.882 . S
C63 C57 1.428 . S
C63 O66 1.301 . S
C63 O67 1.282 . S
O64 U46 2.441 . S
O64 C50 1.249 . S
O65 U46 2.420 . S
O65 C50 1.202 . S
O66 U46 2.455 . S
O66 C63 1.301 . S
O67 U46 2.449 . S
O67 C63 1.282 . S
H68 C41 0.931 . S
H69 C43 0.929 . S
H70 C44 0.930 . S
H71 C45 0.931 . S
H72 C52 0.932 . S
H73 C53 0.930 . S
H74 C54 0.929 . S
H75 C56 0.930 . S
H76 C58 0.932 . S
H77 C59 0.929 . S
H78 C60 0.928 . S
H79 C62 0.932 . S
C80 C81 1.264 . S
C80 C85 1.479 . S
C80 C90 1.465 . S
C81 C80 1.264 . S
C81 C83 1.339 . S
C81 H108 0.931 . S
C82 C83 1.395 . S
C82 C84 1.320 . S
C83 C81 1.339 . S
C83 C82 1.395 . S
C83 H109 0.929 1_545 S
C84 C82 1.320 . S
C84 C85 1.405 . S
C84 H110 0.930 . S
C85 C80 1.479 . S
C85 C84 1.405 . S
C85 H111 0.931 . S
U86 O87 2.454 . S
U86 O88 2.458 1_554 S
U86 C89 2.984 1_554 S
U86 C90 2.847 . S
U86 C103 2.882 1_554 S
U86 O104 2.441 . S
U86 O105 2.420 . S
U86 O106 2.455 1_554 S
U86 O107 2.449 1_554 S
O87 U86 2.454 . S
O87 C89 1.353 1_554 S
O88 U86 2.458 1_556 S
O88 C89 1.286 . S
C89 U86 2.984 1_556 S
C89 O87 1.353 1_556 S
C89 O88 1.286 . S
C89 C91 1.363 . S
C90 C80 1.465 . S
C90 U86 2.847 . S
C90 O104 1.249 . S
C90 O105 1.202 . S
C91 C89 1.363 . S
C91 C93 1.408 1_556 S
C91 C96 1.342 . S
C92 C93 1.310 . S
C92 C95 1.461 1_554 S
C92 H112 0.932 . S
C93 C91 1.408 1_554 S
C93 C92 1.310 . S
C93 H113 0.930 . S
C94 C95 1.474 . S
C94 C96 1.285 . S
C94 H114 0.929 . S
C95 C92 1.461 1_556 S
C95 C94 1.474 . S
C96 C91 1.342 . S
C96 C94 1.285 . S
C96 H115 0.930 . S
C97 C100 1.424 . S
C97 C102 1.245 . S
C97 C103 1.428 . S
C98 C101 1.260 . S
C98 C102 1.477 . S
C98 H116 0.932 . S
C99 C100 1.384 . S
C99 C101 1.479 . S
C99 H117 0.929 . S
C100 C97 1.424 . S
C100 C99 1.384 . S
C100 H118 0.928 . S
C101 C98 1.260 . S
C101 C99 1.479 . S
C102 C97 1.245 . S
C102 C98 1.477 . S
C102 H119 0.932 . S
C103 U86 2.882 1_556 S
C103 C97 1.428 . S
C103 O106 1.301 . S
C103 O107 1.282 . S
O104 U86 2.441 . S
O104 C90 1.249 . S
O105 U86 2.420 . S
O105 C90 1.202 . S
O106 U86 2.455 1_556 S
O106 C103 1.301 . S
O107 U86 2.449 1_556 S
O107 C103 1.282 . S
H108 C81 0.931 . S
H109 C83 0.929 1_565 S
H110 C84 0.930 . S
H111 C85 0.931 . S
H112 C92 0.932 . S
H113 C93 0.930 . S
H114 C94 0.929 . S
H115 C96 0.930 . S
H116 C98 0.932 . S
H117 C99 0.929 . S
H118 C100 0.928 . S
H119 C102 0.932 . S
C120 C121 1.264 . S
C120 C125 1.479 . S
C120 C130 1.465 . S
C121 C120 1.264 . S
C121 C123 1.339 . S
C121 H148 0.931 . S
C122 C123 1.395 . S
C122 C124 1.320 . S
C123 C121 1.339 . S
C123 C122 1.395 . S
C123 H149 0.929 . S
C124 C122 1.320 . S
C124 C125 1.405 . S
C124 H150 0.930 . S
C125 C120 1.479 . S
C125 C124 1.405 . S
C125 H151 0.931 . S
U126 O127 2.454 . S
U126 O128 2.458 . S
U126 C129 2.984 . S
U126 C130 2.847 . S
U126 C143 2.882 . S
U126 O144 2.441 . S
U126 O145 2.420 . S
U126 O146 2.455 . S
U126 O147 2.449 . S
O127 U126 2.454 . S
O127 C129 1.353 . S
O128 U126 2.458 . S
O128 C129 1.286 . S
C129 U126 2.984 . S
C129 O127 1.353 . S
C129 O128 1.286 . S
C129 C131 1.363 . S
C130 C120 1.465 . S
C130 U126 2.847 . S
C130 O144 1.249 . S
C130 O145 1.202 . S
C131 C129 1.363 . S
C131 C133 1.408 . S
C131 C136 1.342 . S
C132 C133 1.310 . S
C132 C135 1.461 . S
C132 H152 0.932 . S
C133 C131 1.408 . S
C133 C132 1.310 . S
C133 H153 0.930 . S
C134 C135 1.474 . S
C134 C136 1.285 . S
C134 H154 0.929 . S
C135 C132 1.461 . S
C135 C134 1.474 . S
C136 C131 1.342 . S
C136 C134 1.285 . S
C136 H155 0.930 . S
C137 C140 1.424 . S
C137 C142 1.245 . S
C137 C143 1.428 . S
C138 C141 1.260 . S
C138 C142 1.477 . S
C138 H156 0.932 . S
C139 C140 1.384 . S
C139 C141 1.479 . S
C139 H157 0.929 . S
C140 C137 1.424 . S
C140 C139 1.384 . S
C140 H158 0.928 . S
C141 C138 1.260 . S
C141 C139 1.479 . S
C142 C137 1.245 . S
C142 C138 1.477 . S
C142 H159 0.932 . S
C143 U126 2.882 . S
C143 C137 1.428 . S
C143 O146 1.301 . S
C143 O147 1.282 . S
O144 U126 2.441 . S
O144 C130 1.249 . S
O145 U126 2.420 . S
O145 C130 1.202 . S
O146 U126 2.455 . S
O146 C143 1.301 . S
O147 U126 2.449 . S
O147 C143 1.282 . S
H148 C121 0.931 . S
H149 C123 0.929 . S
H150 C124 0.930 . S
H151 C125 0.931 . S
H152 C132 0.932 . S
H153 C133 0.930 . S
H154 C134 0.929 . S
H155 C136 0.930 . S
H156 C138 0.932 . S
H157 C139 0.929 . S
H158 C140 0.928 . S
H159 C142 0.932 . S
O160 Mn161 2.163 1_655 S
O160 C174 1.244 . S
Mn161 O160 2.163 1_455 S
Mn161 O164 2.160 1_545 S
Mn161 O165 2.221 . S
Mn161 O167 2.163 1_455 S
Mn161 O169 2.160 1_545 S
Mn161 O179 2.221 1_445 S
O162 Mn163 2.087 1_545 S
O162 C174 1.256 . S
Mn163 O162 2.087 1_565 S
Mn163 O170 2.089 1_655 S
Mn163 O179 2.290 . S
Mn163 O180 2.251 . S
O164 Mn161 2.160 1_565 S
O164 C175 1.239 . S
O165 Mn161 2.221 . S
O165 Mn166 2.290 . S
O165 C176 1.278 . S
Mn166 O165 2.290 . S
Mn166 O168 2.089 . S
Mn166 O171 2.251 . S
Mn166 O172 2.087 1_455 S
O167 Mn161 2.163 1_655 S
O167 C177 1.244 . S
O168 Mn166 2.089 . S
O168 C175 1.256 1_545 S
O169 Mn161 2.160 1_565 S
O169 C178 1.239 . S
O170 Mn163 2.089 1_455 S
O170 C178 1.256 . S
O171 Mn166 2.251 . S
O171 C176 1.241 . S
O172 Mn166 2.087 1_655 S
O172 C177 1.256 . S
C173 O179 1.278 . S
C173 O180 1.241 . S
C174 O160 1.244 . S
C174 O162 1.256 . S
C175 O164 1.239 . S
C175 O168 1.256 1_565 S
C176 O165 1.278 . S
C176 O171 1.241 . S
C177 O167 1.244 . S
C177 O172 1.256 . S
C178 O169 1.239 . S
C178 O170 1.256 . S
O179 Mn161 2.221 1_665 S
O179 Mn163 2.290 . S
O179 C173 1.278 . S
O180 Mn163 2.251 . S
O180 C173 1.241 . S
O181 Mn182 2.163 . S
O181 C195 1.244 . S
Mn182 O181 2.163 . S
Mn182 O185 2.160 1_554 S
Mn182 O186 2.221 . S
Mn182 O188 2.163 1_554 S
Mn182 O190 2.160 . S
Mn182 O200 2.221 . S
O183 Mn184 2.087 . S
O183 C195 1.256 . S
Mn184 O183 2.087 . S
Mn184 O191 2.089 . S
Mn184 O200 2.290 . S
Mn184 O201 2.251 . S
O185 Mn182 2.160 1_556 S
O185 C196 1.239 . S
O186 Mn182 2.221 . S
O186 Mn187 2.290 1_554 S
O186 C197 1.278 . S
Mn187 O186 2.290 1_556 S
Mn187 O189 2.089 . S
Mn187 O192 2.251 . S
Mn187 O193 2.087 . S
O188 Mn182 2.163 1_556 S
O188 C198 1.244 . S
O189 Mn187 2.089 . S
O189 C196 1.256 . S
O190 Mn182 2.160 . S
O190 C199 1.239 . S
O191 Mn184 2.089 . S
O191 C199 1.256 . S
O192 Mn187 2.251 . S
O192 C197 1.241 1_556 S
O193 Mn187 2.087 . S
O193 C198 1.256 . S
C194 O200 1.278 . S
C194 O201 1.241 . S
C195 O181 1.244 . S
C195 O183 1.256 . S
C196 O185 1.239 . S
C196 O189 1.256 . S
C197 O186 1.278 . S
C197 O192 1.241 1_554 S
C198 O188 1.244 . S
C198 O193 1.256 . S
C199 O190 1.239 . S
C199 O191 1.256 . S
O200 Mn182 2.221 . S
O200 Mn184 2.290 . S
O200 C194 1.278 . S
O201 Mn184 2.251 . S
O201 C194 1.241 . S
C176 C135 2.226 . S
C15 C197 2.189 . S
C55 C173 2.144 . S
C95 C194 2.263 1_556 S
C178 C2 2.704 . S
C198 C42 2.072 . S
C82 C174 1.853 . S
C141 C196 2.191 . S
C195 C61 1.672 . S
C177 C101 2.334 . S
C199 C122 2.727 . S
C21 C175 2.223 1_545 S
