# Generated by pormake.
# Topology scu, (8,4)-cn, num edge types: 1
# Building blocks:
#     Node 0, Type 0, BuildingBlock: VETTIZ_charged_sbu_0, # of connection points: 8
#     Node 1, Type 1, BuildingBlock: ESEHIV_clean_sbu_0, # of connection points: 4
#     Node 2, Type 1, BuildingBlock: ESEHIV_clean_sbu_0, # of connection points: 4
#     Edge 3, Type (0, 1), BuildingBlock: KIFKEQ_clean_linker_1, # of connection points: 2
#     Edge 4, Type (0, 1), BuildingBlock: KIFKEQ_clean_linker_1, # of connection points: 2
#     Edge 5, Type (0, 1), BuildingBlock: KIFKEQ_clean_linker_1, # of connection points: 2
#     Edge 6, Type (0, 1), BuildingBlock: KIFKEQ_clean_linker_1, # of connection points: 2
#     Edge 7, Type (0, 1), BuildingBlock: KIFKEQ_clean_linker_1, # of connection points: 2
#     Edge 8, Type (0, 1), BuildingBlock: KIFKEQ_clean_linker_1, # of connection points: 2
#     Edge 9, Type (0, 1), BuildingBlock: KIFKEQ_clean_linker_1, # of connection points: 2
#     Edge 10, Type (0, 1), BuildingBlock: KIFKEQ_clean_linker_1, # of connection points: 2
# Relax obj value: 0.003
# Max RMSD: 0.097
# Mean RMSD: 0.074
data_MOF--net-scu--node1-VETTIZ_charged_sbu_0--node2-ESEHIV_clean_sbu_0--edge1-KIFKEQ_clean_linker_1
_symmetry_space_group_name_H-M    P1
_symmetry_Int_Tables_number       1
_symmetry_cell_setting            triclinic
loop_
_symmetry_equiv_pos_as_xyz
'x, y, z'
_cell_length_a     27.307977
_cell_length_b     27.395427
_cell_length_c     18.250115
_cell_angle_alpha  93.048784
_cell_angle_beta   93.325528
_cell_angle_gamma 91.412327
loop_
_atom_site_label
_atom_site_type_symbol
_atom_site_fract_x
_atom_site_fract_y
_atom_site_fract_z
_atom_type_partial_charge
Fe0 Fe 0.02592 0.03067 0.22834 0.0
O1 O 0.02189 0.02946 0.12075 0.0
Fe2 Fe 0.03978 0.96444 0.06334 0.0
Fe3 Fe 0.96183 0.04558 0.05968 0.0
O4 O 0.02529 0.02593 0.1209 0.0
O5 O 0.9793 0.97974 1.00295 0.0
O6 O 0.97561 0.98327 1.00296 0.0
Fe7 Fe 0.97843 0.9781 0.89505 0.0
C8 C 0.91366 0.01678 0.19454 0.0
O9 O 0.0204 0.10484 0.2161 0.0
O10 O 0.95637 0.10951 0.1284 0.0
O11 O 0.05366 0.9748 0.88994 0.0
O12 O 0.0831 1.00523 0.99895 0.0
O13 O 0.10235 0.95728 0.13479 0.0
O14 O 0.10053 0.02391 0.21786 0.0
O15 O 1.00544 0.08578 0.99543 0.0
O16 O 0.98409 0.05257 0.88376 0.0
C17 C 0.12242 0.98748 0.18629 0.0
O18 O 0.97992 0.90439 0.90888 0.0
O19 O 0.04512 0.90021 0.99439 0.0
O20 O 0.95087 0.03073 0.23651 0.0
O21 O 0.91618 0.00877 0.12542 0.0
C22 C 0.9855 0.12818 0.18264 0.0
C23 C 1.00384 0.08704 0.92577 0.0
C24 C 0.88128 0.02274 0.93283 0.0
O25 O 0.89952 0.05259 0.98642 0.0
O26 O 0.9045 0.98762 0.90076 0.0
C27 C 0.08681 0.99821 0.93015 0.0
O28 O 0.99915 0.92233 0.12898 0.0
O29 O 0.02511 0.95602 0.23836 0.0
C30 C 0.01349 0.8805 0.94406 0.0
C31 C 1.00878 0.91931 0.19763 0.0
Cu32 Cu 0.03709 0.49286 0.5581 0.0
N33 N 0.07959 0.44786 0.59858 0.0
N34 N 0.10001 0.38385 0.66384 0.0
C35 C 0.065 0.41592 0.64687 0.0
C36 C 0.13841 0.39617 0.62452 0.0
C37 C 0.12576 0.43594 0.58443 0.0
O38 O 0.98373 0.45269 0.50949 0.0
C39 C 0.05453 0.55903 0.67426 0.0
O40 O 0.09927 0.54928 0.65612 0.0
H41 H 0.02835 0.41491 0.66648 0.0
H42 H 0.1482 0.45394 0.54654 0.0
N43 N 0.06511 0.53212 0.49024 0.0
N44 N 0.0703 0.59589 0.41893 0.0
C45 C 0.04894 0.57686 0.47636 0.0
C46 C 0.09814 0.52211 0.44009 0.0
C47 C 0.1016 0.56149 0.39617 0.0
C48 C 0.96968 0.45463 0.44189 0.0
O49 O 0.98277 0.49261 0.4059 0.0
H50 H 0.01982 0.59365 0.50557 0.0
H51 H 0.11677 0.48792 0.43373 0.0
O52 O 0.01855 0.53666 0.63827 0.0
H53 H 0.17284 0.37745 0.62402 0.0
H54 H 0.12464 0.56393 0.35019 0.0
Cu55 Cu 0.49331 0.0489 0.5713 0.0
N56 N 0.45063 0.09189 0.61627 0.0
N57 N 0.38573 0.11069 0.68073 0.0
C58 C 0.40326 0.08123 0.62728 0.0
C59 C 0.42338 0.14165 0.70368 0.0
C60 C 0.46335 0.12997 0.66379 0.0
O61 O 0.45564 1.00628 0.49974 0.0
C62 C 0.56076 0.98639 0.64323 0.0
O63 O 0.56307 0.96291 0.57894 0.0
H64 H 0.38355 0.04931 0.60234 0.0
H65 H 0.50026 0.14504 0.67371 0.0
N66 N 0.54042 0.08035 0.51866 0.0
N67 N 0.60527 0.08703 0.44987 0.0
C68 C 0.57335 0.05637 0.47922 0.0
C69 C 0.55137 0.12816 0.51348 0.0
C70 C 0.59139 0.13241 0.47077 0.0
C71 C 0.42318 0.9739 0.51081 0.0
O72 O 0.41689 0.96127 0.57815 0.0
H73 H 0.57386 0.01699 0.47205 0.0
H74 H 0.53231 0.15775 0.53995 0.0
O75 O 0.52896 0.01897 0.65115 0.0
H76 H 0.42308 0.16848 0.74937 0.0
H77 H 0.60977 0.16614 0.45821 0.0
H78 H 0.03137 0.17447 0.30455 0.0
H79 H 0.91878 0.19542 0.13309 0.0
H80 H 0.01368 0.25258 0.36308 0.0
H81 H 0.90141 0.27517 0.19293 0.0
H82 H 0.94699 0.36647 0.49677 0.0
H83 H 0.94149 0.28746 0.42873 0.0
H84 H 0.94905 0.35913 0.22466 0.0
H85 H 0.95426 0.43861 0.2925 0.0
C86 C 1.00286 0.19568 0.27885 0.0
C87 C 0.97639 0.17818 0.21386 0.0
C88 C 0.99241 0.24046 0.31315 0.0
C89 C 0.95548 0.26949 0.28346 0.0
C90 C 0.92981 0.25319 0.21728 0.0
C91 C 0.93989 0.20767 0.18304 0.0
C92 C 0.94604 0.36566 0.4373 0.0
C93 C 0.9522 0.40889 0.40029 0.0
C94 C 0.94309 0.32033 0.39835 0.0
C95 C 0.946 0.31721 0.3216 0.0
C96 C 0.94688 0.36049 0.28381 0.0
C97 C 0.94997 0.40601 0.32285 0.0
H98 H 0.82453 0.03528 0.12694 0.0
H99 H 0.89358 1.0017 0.33626 0.0
H100 H 0.74724 0.04936 0.18543 0.0
H101 H 0.8167 0.01584 0.39468 0.0
H102 H 0.65948 1.00637 0.46501 0.0
H103 H 0.73089 0.98332 0.39822 0.0
H104 H 0.71883 0.11398 0.27693 0.0
H105 H 0.64666 0.13681 0.34345 0.0
C106 C 0.82285 0.02967 0.18498 0.0
C107 C 0.86505 0.01704 0.22682 0.0
C108 C 0.77882 0.03841 0.21869 0.0
C109 C 0.77593 0.03403 0.29479 0.0
C110 C 0.81757 0.01923 0.3359 0.0
C111 C 0.86166 0.01116 0.30243 0.0
C112 C 0.67161 0.02992 0.42348 0.0
C113 C 0.64724 0.07342 0.40941 0.0
C114 C 0.71281 0.01687 0.3856 0.0
C115 C 0.7305 0.04673 0.33216 0.0
C116 C 0.70578 0.08991 0.31724 0.0
C117 C 0.66479 0.10327 0.35581 0.0
H118 H 0.02646 0.89978 0.34146 0.0
H119 H 0.99312 0.82839 0.12675 0.0
H120 H 0.03956 0.82124 0.39273 0.0
H121 H 1.00444 0.7489 0.1792 0.0
H122 H 0.08923 0.62308 0.28133 0.0
H123 H 0.06941 0.7 0.22724 0.0
H124 H 1.00224 0.74839 0.42605 0.0
H125 H 0.02471 0.67334 0.48164 0.0
C126 C 0.0209 0.86723 0.30529 0.0
C127 C 1.00881 0.87063 0.22979 0.0
C128 C 0.02822 0.82192 0.33496 0.0
C129 C 0.02324 0.77848 0.29024 0.0
C130 C 1.00935 0.78162 0.21512 0.0
C131 C 1.00224 0.82719 0.18519 0.0
C132 C 0.07077 0.65025 0.31396 0.0
C133 C 0.05877 0.64156 0.38623 0.0
C134 C 0.05866 0.69422 0.28237 0.0
C135 C 0.03407 0.73057 0.32207 0.0
C136 C 0.02171 0.72164 0.39396 0.0
C137 C 0.03417 0.67803 0.4257 0.0
H138 H 0.19511 0.05414 0.22764 0.0
H139 H 0.1609 0.89916 0.21636 0.0
H140 H 0.27292 0.04001 0.29491 0.0
H141 H 0.23872 0.88505 0.28574 0.0
H142 H 0.33727 0.91997 0.51669 0.0
H143 H 0.26837 0.91495 0.4243 0.0
H144 H 0.35482 0.99403 0.27693 0.0
H145 H 0.42377 0.99856 0.36794 0.0
C146 C 0.20474 0.01696 0.23852 0.0
C147 C 0.17227 0.97774 0.21657 0.0
C148 C 0.24925 0.00884 0.27681 0.0
C149 C 0.26175 0.96142 0.29542 0.0
C150 C 0.22987 0.92191 0.27193 0.0
C151 C 0.18569 0.92995 0.23188 0.0
C152 C 0.34212 0.93498 0.46379 0.0
C153 C 0.3858 0.96039 0.45034 0.0
C154 C 0.30268 0.93202 0.41088 0.0
C155 C 0.3062 0.9547 0.344 0.0
C156 C 0.35105 0.97671 0.32839 0.0
C157 C 0.39052 0.97921 0.38069 0.0
H158 H 0.95038 0.82679 0.84855 0.0
H159 H 0.08318 0.81439 0.98665 0.0
H160 H 0.95897 0.74473 0.79797 0.0
H161 H 0.09079 0.73028 0.93716 0.0
H162 H 0.12433 0.62017 0.74444 0.0
H163 H 0.11243 0.69226 0.82356 0.0
H164 H 0.95633 0.65997 0.81274 0.0
H165 H 0.96819 0.58853 0.73047 0.0
C166 C 0.98121 0.80634 0.86916 0.0
C167 C 0.01667 0.82787 0.92092 0.0
C168 C 0.98575 0.75866 0.84052 0.0
C169 C 0.02566 0.73063 0.86307 0.0
C170 C 0.05995 0.7511 0.91764 0.0
C171 C 0.0555 0.79925 0.94631 0.0
C172 C 0.08744 0.62805 0.75946 0.0
C173 C 0.04706 0.59901 0.73007 0.0
C174 C 0.08068 0.66931 0.80564 0.0
C175 C 0.03338 0.68242 0.8242 0.0
C176 C 0.99323 0.6516 0.79835 0.0
C177 C 0.99997 0.61051 0.75143 0.0
H178 H 0.12298 0.96521 0.8012 0.0
H179 H 0.14931 0.07429 0.97956 0.0
H180 H 0.19369 0.99636 0.74185 0.0
H181 H 0.21906 0.1074 0.9184 0.0
H182 H 0.37263 0.11827 0.82684 0.0
H183 H 0.29985 0.09337 0.88806 0.0
H184 H 0.22373 0.05972 0.67622 0.0
H185 H 0.29763 0.0826 0.61577 0.0
C186 C 0.14375 0.99619 0.8275 0.0
C187 C 0.13071 0.01706 0.89535 0.0
C188 C 0.18416 0.0145 0.79301 0.0
C189 C 0.21225 0.05485 0.82467 0.0
C190 C 0.19896 0.07588 0.89263 0.0
C191 C 0.15887 0.05698 0.92777 0.0
C192 C 0.34004 0.1063 0.79351 0.0
C193 C 0.3408 0.10226 0.7165 0.0
C194 C 0.29814 0.092 0.82858 0.0
C195 C 0.25569 0.07388 0.78743 0.0
C196 C 0.25595 0.07212 0.71011 0.0
C197 C 0.29811 0.08565 0.67521 0.0
H198 H 0.03247 0.17611 0.99287 0.0
H199 H 0.023 0.09603 0.78174 0.0
H200 H 0.06331 0.24825 0.93501 0.0
H201 H 0.05319 0.1681 0.72418 0.0
H202 H 0.1419 0.29538 0.64766 0.0
H203 H 0.1254 0.22311 0.71653 0.0
H204 H 0.028 0.30649 0.84968 0.0
H205 H 0.04535 0.37866 0.78204 0.0
C206 C 0.03715 0.17378 0.93426 0.0
C207 C 0.02466 0.13041 0.89185 0.0
C208 C 0.05467 0.21517 0.90109 0.0
C209 C 0.06057 0.21399 0.82493 0.0
C210 C 0.04956 0.17015 0.78304 0.0
C211 C 0.03172 0.12895 0.81602 0.0
C212 C 0.11775 0.29844 0.69255 0.0
C213 C 0.0946 0.34262 0.709 0.0
C214 C 0.10792 0.25696 0.73155 0.0
C215 C 0.0751 0.25894 0.78827 0.0
C216 C 0.0537 0.30373 0.80671 0.0
C217 C 0.06324 0.34499 0.76744 0.0
H218 H 0.79423 0.02049 1.00119 0.0
H219 H 0.85621 0.03552 0.79133 0.0
H220 H 0.71205 0.00857 0.93897 0.0
H221 H 0.77507 0.02399 0.72949 0.0
H222 H 0.64569 0.93636 0.63339 0.0
H223 H 0.72066 0.94908 0.71168 0.0
H224 H 0.64636 0.04826 0.85665 0.0
H225 H 0.57084 0.03528 0.77868 0.0
C226 C 0.78997 0.02302 0.94223 0.0
C227 C 0.83127 0.02917 0.90093 0.0
C228 C 0.74317 0.01566 0.90653 0.0
C229 C 0.73743 0.01402 0.82923 0.0
C230 C 0.7785 0.02367 0.78891 0.0
C231 C 0.82482 0.03099 0.82432 0.0
C232 C 0.64485 0.96002 0.68276 0.0
C233 C 0.60237 0.98529 0.69906 0.0
C234 C 0.68799 0.96769 0.72728 0.0
C235 C 0.68964 1.00065 0.78926 0.0
C236 C 0.64623 0.02292 0.80902 0.0
C237 C 0.60301 0.0154 0.76424 0.0
loop_
_geom_bond_atom_site_label_1
_geom_bond_atom_site_label_2
_geom_bond_distance
_geom_bond_site_symmetry_2
_ccdc_geom_bond_type
Fe0 O1 1.886 1_455 S
Fe0 O4 1.715 1_545 S
Fe0 O9 2.077 . S
Fe0 O14 1.935 . S
Fe0 O20 2.077 1_455 S
Fe0 O29 1.935 1_445 S
O1 Fe0 1.886 1_655 S
O1 Fe3 1.715 . S
Fe2 O4 1.886 . S
Fe2 O5 1.715 1_554 S
Fe2 O12 1.935 1_554 S
Fe2 O13 2.077 . S
Fe2 O19 1.935 1_554 S
Fe2 O28 2.077 . S
Fe3 O1 1.715 . S
Fe3 O6 1.886 1_554 S
Fe3 O10 1.935 . S
Fe3 O15 2.077 1_554 S
Fe3 O21 1.935 . S
Fe3 O25 2.077 1_554 S
O4 Fe0 1.715 1_565 S
O4 Fe2 1.886 . S
O5 Fe2 1.715 1_556 S
O5 Fe7 1.891 . S
O6 Fe3 1.886 1_556 S
O6 Fe7 1.710 1_645 S
Fe7 O5 1.891 . S
Fe7 O6 1.710 1_465 S
Fe7 O11 2.077 1_565 S
Fe7 O16 1.925 1_565 S
Fe7 O18 2.087 1_455 S
Fe7 O26 1.937 1_455 S
C8 O20 1.381 . S
C8 O21 1.421 . S
O9 Fe0 2.077 . S
O9 C22 1.381 1_455 S
O10 Fe3 1.935 . S
O10 C22 1.421 . S
O11 Fe7 2.077 1_545 S
O11 C27 1.381 1_545 S
O12 Fe2 1.935 1_556 S
O12 C27 1.421 . S
O13 Fe2 2.077 . S
O13 C17 1.381 . S
O14 Fe0 1.935 . S
O14 C17 1.421 1_545 S
O15 Fe3 2.077 1_556 S
O15 C23 1.381 . S
O16 Fe7 1.925 1_545 S
O16 C23 1.421 1_455 S
C17 O13 1.381 . S
C17 O14 1.421 1_565 S
O18 Fe7 2.087 1_655 S
O18 C30 1.381 1_655 S
O19 Fe2 1.935 1_556 S
O19 C30 1.421 . S
O20 Fe0 2.077 1_655 S
O20 C8 1.381 . S
O21 Fe3 1.935 . S
O21 C8 1.421 . S
C22 O9 1.381 1_655 S
C22 O10 1.421 . S
C23 O15 1.381 . S
C23 O16 1.421 1_655 S
C24 O25 1.381 . S
C24 O26 1.421 1_545 S
O25 Fe3 2.077 1_556 S
O25 C24 1.381 . S
O26 Fe7 1.937 1_655 S
O26 C24 1.421 1_565 S
C27 O11 1.381 1_565 S
C27 O12 1.421 . S
O28 Fe2 2.077 . S
O28 C31 1.381 . S
O29 Fe0 1.935 1_665 S
O29 C31 1.421 1_655 S
C30 O18 1.381 1_455 S
C30 O19 1.421 . S
C31 O28 1.381 . S
C31 O29 1.421 1_455 S
Cu32 N33 1.999 . S
Cu32 O38 1.974 . S
Cu32 N43 1.985 . S
Cu32 O52 1.959 . S
N33 Cu32 1.999 . S
N33 C35 1.263 . S
N33 C37 1.389 . S
N34 C35 1.358 . S
N34 C36 1.400 . S
C35 N33 1.263 . S
C35 N34 1.358 . S
C35 H41 0.930 1_655 S
C36 N34 1.400 . S
C36 C37 1.351 . S
C36 H53 0.930 . S
C37 N33 1.389 . S
C37 C36 1.351 . S
C37 H42 0.930 . S
O38 Cu32 1.974 . S
O38 C48 1.282 1_655 S
C39 O40 1.261 . S
C39 O52 1.251 1_455 S
O40 C39 1.261 . S
H41 C35 0.930 1_455 S
H42 C37 0.930 . S
N43 Cu32 1.985 . S
N43 C45 1.335 . S
N43 C46 1.390 1_655 S
N44 C45 1.345 . S
N44 C47 1.336 1_655 S
C45 N43 1.335 . S
C45 N44 1.345 . S
C45 H50 0.930 . S
C46 N43 1.390 1_455 S
C46 C47 1.346 . S
C46 H51 0.930 . S
C47 N44 1.336 1_455 S
C47 C46 1.346 . S
C47 H54 0.929 . S
C48 O38 1.282 1_455 S
C48 O49 1.216 . S
O49 C48 1.216 . S
H50 C45 0.930 . S
H51 C46 0.930 . S
O52 Cu32 1.959 . S
O52 C39 1.251 1_655 S
H53 C36 0.930 . S
H54 C47 0.929 . S
Cu55 N56 1.999 . S
Cu55 O61 1.974 . S
Cu55 N66 1.985 . S
Cu55 O75 1.959 . S
N56 Cu55 1.999 . S
N56 C58 1.263 . S
N56 C60 1.389 . S
N57 C58 1.358 . S
N57 C59 1.400 . S
C58 N56 1.263 . S
C58 N57 1.358 . S
C58 H64 0.930 1_545 S
C59 N57 1.400 . S
C59 C60 1.351 . S
C59 H76 0.930 . S
C60 N56 1.389 . S
C60 C59 1.351 . S
C60 H65 0.930 . S
O61 Cu55 1.974 . S
O61 C71 1.282 1_545 S
C62 O63 1.261 . S
C62 O75 1.251 1_565 S
O63 C62 1.261 . S
H64 C58 0.930 1_565 S
H65 C60 0.930 . S
N66 Cu55 1.985 . S
N66 C68 1.335 . S
N66 C69 1.390 1_545 S
N67 C68 1.345 . S
N67 C70 1.336 1_545 S
C68 N66 1.335 . S
C68 N67 1.345 . S
C68 H73 0.930 . S
C69 N66 1.390 1_565 S
C69 C70 1.346 . S
C69 H74 0.930 . S
C70 N67 1.336 1_565 S
C70 C69 1.346 . S
C70 H77 0.929 . S
C71 O61 1.282 1_565 S
C71 O72 1.216 . S
O72 C71 1.216 . S
H73 C68 0.930 . S
H74 C69 0.930 . S
O75 Cu55 1.959 . S
O75 C62 1.251 1_545 S
H76 C59 0.930 . S
H77 C70 0.929 . S
H78 C86 0.950 . S
H79 C91 0.950 . S
H80 C88 0.950 . S
H81 C90 0.950 . S
H82 C92 0.950 . S
H83 C94 0.950 . S
H84 C96 0.945 1_655 S
H85 C97 0.950 1_655 S
C86 H78 0.950 . S
C86 C87 1.386 1_655 S
C86 C88 1.391 . S
C87 C86 1.386 1_455 S
C87 C91 1.393 . S
C88 H80 0.950 . S
C88 C86 1.391 . S
C88 C89 1.400 1_655 S
C89 C88 1.400 1_455 S
C89 C90 1.398 . S
C89 C95 1.491 . S
C90 H81 0.950 . S
C90 C89 1.398 . S
C90 C91 1.391 . S
C91 H79 0.950 . S
C91 C87 1.393 . S
C91 C90 1.391 . S
C92 H82 0.950 . S
C92 C93 1.386 . S
C92 C94 1.391 . S
C93 C92 1.386 . S
C93 C97 1.393 . S
C94 H83 0.950 . S
C94 C92 1.391 . S
C94 C95 1.400 . S
C95 C89 1.491 . S
C95 C94 1.400 . S
C95 C96 1.405 . S
C96 H84 0.945 1_455 S
C96 C95 1.405 . S
C96 C97 1.390 . S
C97 H85 0.950 1_455 S
C97 C93 1.393 . S
C97 C96 1.390 . S
H98 C106 0.950 . S
H99 C111 0.950 . S
H100 C108 0.950 . S
H101 C110 0.950 . S
H102 C112 0.950 . S
H103 C114 0.950 . S
H104 C116 0.950 . S
H105 C117 0.950 . S
C106 H98 0.950 . S
C106 C107 1.386 . S
C106 C108 1.391 . S
C107 C106 1.386 . S
C107 C111 1.393 1_545 S
C108 H100 0.950 . S
C108 C106 1.391 . S
C108 C109 1.400 . S
C109 C108 1.400 . S
C109 C110 1.398 1_545 S
C109 C115 1.491 . S
C110 H101 0.950 . S
C110 C109 1.398 1_565 S
C110 C111 1.391 . S
C111 H99 0.950 . S
C111 C107 1.393 1_565 S
C111 C110 1.391 . S
C112 H102 0.950 . S
C112 C113 1.386 1_565 S
C112 C114 1.391 . S
C113 C112 1.386 1_545 S
C113 C117 1.393 . S
C114 H103 0.950 . S
C114 C112 1.391 . S
C114 C115 1.400 1_565 S
C115 C109 1.491 . S
C115 C114 1.400 1_545 S
C115 C116 1.398 . S
C116 H104 0.950 . S
C116 C115 1.398 . S
C116 C117 1.391 . S
C117 H105 0.950 . S
C117 C113 1.393 . S
C117 C116 1.391 . S
H118 C126 0.950 . S
H119 C131 0.950 . S
H120 C128 0.950 . S
H121 C130 0.950 . S
H122 C132 0.950 . S
H123 C134 0.950 . S
H124 C136 0.950 . S
H125 C137 0.950 . S
C126 H118 0.950 . S
C126 C127 1.386 1_655 S
C126 C128 1.391 . S
C127 C126 1.386 1_455 S
C127 C131 1.393 . S
C128 H120 0.950 . S
C128 C126 1.391 . S
C128 C129 1.401 . S
C129 C128 1.401 . S
C129 C130 1.397 1_655 S
C129 C135 1.491 . S
C130 H121 0.950 . S
C130 C129 1.397 1_455 S
C130 C131 1.391 . S
C131 H119 0.950 . S
C131 C127 1.393 . S
C131 C130 1.391 . S
C132 H122 0.950 . S
C132 C133 1.386 1_455 S
C132 C134 1.391 . S
C133 C132 1.386 1_655 S
C133 C137 1.393 . S
C134 H123 0.950 . S
C134 C132 1.391 . S
C134 C135 1.400 1_455 S
C135 C129 1.491 . S
C135 C134 1.400 1_655 S
C135 C136 1.398 . S
C136 H124 0.950 . S
C136 C135 1.398 . S
C136 C137 1.391 . S
C137 H125 0.950 . S
C137 C133 1.393 . S
C137 C136 1.391 . S
H138 C146 0.950 . S
H139 C151 0.950 . S
H140 C148 0.950 . S
H141 C150 0.950 . S
H142 C152 0.950 . S
H143 C154 0.950 . S
H144 C156 0.950 . S
H145 C157 0.950 . S
C146 H138 0.950 . S
C146 C147 1.386 . S
C146 C148 1.391 . S
C147 C146 1.386 . S
C147 C151 1.393 1_545 S
C148 H140 0.950 . S
C148 C146 1.391 . S
C148 C149 1.401 . S
C149 C148 1.401 . S
C149 C150 1.398 1_545 S
C149 C155 1.491 1_545 S
C150 H141 0.950 . S
C150 C149 1.398 1_565 S
C150 C151 1.391 . S
C151 H139 0.950 . S
C151 C147 1.393 1_565 S
C151 C150 1.391 . S
C152 H142 0.950 . S
C152 C153 1.386 . S
C152 C154 1.391 . S
C153 C152 1.386 . S
C153 C157 1.393 1_565 S
C154 H143 0.950 . S
C154 C152 1.391 . S
C154 C155 1.400 . S
C155 C149 1.491 1_565 S
C155 C154 1.400 . S
C155 C156 1.398 1_565 S
C156 H144 0.950 . S
C156 C155 1.398 1_545 S
C156 C157 1.391 . S
C157 H145 0.950 . S
C157 C153 1.393 1_545 S
C157 C156 1.391 . S
H158 C166 0.950 . S
H159 C171 0.950 . S
H160 C168 0.950 . S
H161 C170 0.950 . S
H162 C172 0.950 . S
H163 C174 0.950 . S
H164 C176 0.950 . S
H165 C177 0.950 . S
C166 H158 0.950 . S
C166 C167 1.386 1_655 S
C166 C168 1.391 . S
C167 C166 1.386 1_455 S
C167 C171 1.393 . S
C168 H160 0.950 . S
C168 C166 1.391 . S
C168 C169 1.400 1_655 S
C169 C168 1.400 1_455 S
C169 C170 1.398 . S
C169 C175 1.491 . S
C170 H161 0.950 . S
C170 C169 1.398 . S
C170 C171 1.391 . S
C171 H159 0.950 . S
C171 C167 1.393 . S
C171 C170 1.391 . S
C172 H162 0.950 . S
C172 C173 1.386 . S
C172 C174 1.391 . S
C173 C172 1.386 . S
C173 C177 1.393 1_455 S
C174 H163 0.950 . S
C174 C172 1.391 . S
C174 C175 1.400 . S
C175 C169 1.491 . S
C175 C174 1.400 . S
C175 C176 1.398 1_455 S
C176 H164 0.950 . S
C176 C175 1.398 1_655 S
C176 C177 1.391 . S
C177 H165 0.950 . S
C177 C173 1.393 1_655 S
C177 C176 1.391 . S
H178 C186 0.950 . S
H179 C191 0.950 . S
H180 C188 0.950 . S
H181 C190 0.950 . S
H182 C192 0.950 . S
H183 C194 0.950 . S
H184 C196 0.950 . S
H185 C197 0.950 . S
C186 H178 0.950 . S
C186 C187 1.386 1_565 S
C186 C188 1.391 . S
C187 C186 1.386 1_545 S
C187 C191 1.393 . S
C188 H180 0.950 . S
C188 C186 1.391 . S
C188 C189 1.400 1_565 S
C189 C188 1.400 1_545 S
C189 C190 1.398 . S
C189 C195 1.491 . S
C190 H181 0.950 . S
C190 C189 1.398 . S
C190 C191 1.391 . S
C191 H179 0.950 . S
C191 C187 1.393 . S
C191 C190 1.391 . S
C192 H182 0.950 . S
C192 C193 1.386 . S
C192 C194 1.391 . S
C193 C192 1.386 . S
C193 C197 1.393 1_545 S
C194 H183 0.950 . S
C194 C192 1.391 . S
C194 C195 1.400 . S
C195 C189 1.491 . S
C195 C194 1.400 . S
C195 C196 1.398 1_545 S
C196 H184 0.950 . S
C196 C195 1.398 1_565 S
C196 C197 1.391 . S
C197 H185 0.950 . S
C197 C193 1.393 1_565 S
C197 C196 1.391 . S
H198 C206 0.950 . S
H199 C211 0.950 . S
H200 C208 0.950 . S
H201 C210 0.950 . S
H202 C212 0.950 . S
H203 C214 0.950 . S
H204 C216 0.950 . S
H205 C217 0.950 . S
C206 H198 0.950 . S
C206 C207 1.386 1_655 S
C206 C208 1.391 . S
C207 C206 1.386 1_455 S
C207 C211 1.393 . S
C208 H200 0.950 . S
C208 C206 1.391 . S
C208 C209 1.400 . S
C209 C208 1.400 . S
C209 C210 1.398 1_655 S
C209 C215 1.491 . S
C210 H201 0.950 . S
C210 C209 1.398 1_455 S
C210 C211 1.391 . S
C211 H199 0.950 . S
C211 C207 1.393 . S
C211 C210 1.391 . S
C212 H202 0.950 . S
C212 C213 1.386 1_455 S
C212 C214 1.391 . S
C213 C212 1.386 1_655 S
C213 C217 1.393 . S
C214 H203 0.950 . S
C214 C212 1.391 . S
C214 C215 1.400 1_455 S
C215 C209 1.491 . S
C215 C214 1.400 1_655 S
C215 C216 1.398 . S
C216 H204 0.950 . S
C216 C215 1.398 . S
C216 C217 1.391 . S
C217 H205 0.950 . S
C217 C213 1.393 . S
C217 C216 1.391 . S
H218 C226 0.950 . S
H219 C231 0.950 . S
H220 C228 0.950 . S
H221 C230 0.950 . S
H222 C232 0.950 . S
H223 C234 0.950 . S
H224 C236 0.950 . S
H225 C237 0.950 . S
C226 H218 0.950 . S
C226 C227 1.390 . S
C226 C228 1.391 . S
C227 C226 1.390 . S
C227 C231 1.390 1_545 S
C228 H220 0.950 . S
C228 C226 1.391 . S
C228 C229 1.400 1_545 S
C229 C228 1.400 1_565 S
C229 C230 1.398 . S
C229 C235 1.491 . S
C230 H221 0.950 . S
C230 C229 1.398 . S
C230 C231 1.391 . S
C231 H219 0.950 . S
C231 C227 1.390 1_565 S
C231 C230 1.391 . S
C232 H222 0.950 . S
C232 C233 1.386 . S
C232 C234 1.391 . S
C233 C232 1.386 . S
C233 C237 1.393 1_565 S
C234 H223 0.950 . S
C234 C232 1.391 . S
C234 C235 1.400 . S
C235 C229 1.491 . S
C235 C234 1.400 . S
C235 C236 1.398 1_565 S
C236 H224 0.950 . S
C236 C235 1.398 1_545 S
C236 C237 1.391 . S
C237 H225 0.950 . S
C237 C233 1.393 1_545 S
C237 C236 1.391 . S
C87 C22 1.457 1_455 S
C93 C48 1.508 . S
C107 C8 1.362 . S
C113 N67 1.385 . S
C127 C31 1.379 . S
C133 N44 1.387 . S
C147 C17 1.451 1_545 S
C153 C71 1.516 . S
C167 C30 1.496 . S
C173 C39 1.565 . S
C187 C27 1.419 1_545 S
C193 N57 1.425 . S
C213 N34 1.413 . S
C207 C23 1.406 1_455 S
C227 C24 1.504 . S
C233 C62 1.563 . S
