# Generated by pormake.
# Topology ssa, (4,4)-cn, num edge types: 1
# Building blocks:
#     Node 0, Type 0, BuildingBlock: ESEHIV_clean_sbu_0, # of connection points: 4
#     Node 1, Type 0, BuildingBlock: ESEHIV_clean_sbu_0, # of connection points: 4
#     Node 2, Type 0, BuildingBlock: ESEHIV_clean_sbu_0, # of connection points: 4
#     Node 3, Type 0, BuildingBlock: ESEHIV_clean_sbu_0, # of connection points: 4
#     Node 4, Type 0, BuildingBlock: ESEHIV_clean_sbu_0, # of connection points: 4
#     Node 5, Type 0, BuildingBlock: ESEHIV_clean_sbu_0, # of connection points: 4
#     Node 6, Type 1, BuildingBlock: NAWXER_clean_sbu_0, # of connection points: 4
#     Node 7, Type 1, BuildingBlock: NAWXER_clean_sbu_0, # of connection points: 4
#     Node 8, Type 1, BuildingBlock: NAWXER_clean_sbu_0, # of connection points: 4
#     Node 9, Type 1, BuildingBlock: NAWXER_clean_sbu_0, # of connection points: 4
#     Node 10, Type 1, BuildingBlock: NAWXER_clean_sbu_0, # of connection points: 4
#     Node 11, Type 1, BuildingBlock: NAWXER_clean_sbu_0, # of connection points: 4
#     Edge 12, Type (0, 1), None
#     Edge 13, Type (0, 1), None
#     Edge 14, Type (0, 1), None
#     Edge 15, Type (0, 1), None
#     Edge 16, Type (0, 1), None
#     Edge 17, Type (0, 1), None
#     Edge 18, Type (0, 1), None
#     Edge 19, Type (0, 1), None
#     Edge 20, Type (0, 1), None
#     Edge 21, Type (0, 1), None
#     Edge 22, Type (0, 1), None
#     Edge 23, Type (0, 1), None
#     Edge 24, Type (0, 1), None
#     Edge 25, Type (0, 1), None
#     Edge 26, Type (0, 1), None
#     Edge 27, Type (0, 1), None
#     Edge 28, Type (0, 1), None
#     Edge 29, Type (0, 1), None
#     Edge 30, Type (0, 1), None
#     Edge 31, Type (0, 1), None
#     Edge 32, Type (0, 1), None
#     Edge 33, Type (0, 1), None
#     Edge 34, Type (0, 1), None
#     Edge 35, Type (0, 1), None
# Relax obj value: 0.033
# Max RMSD: 0.116
# Mean RMSD: 0.065
data_MOF--net-ssa--node1-ESEHIV_clean_sbu_0--node2-NAWXER_clean_sbu_0--edge1-none
_symmetry_space_group_name_H-M    P1
_symmetry_Int_Tables_number       1
_symmetry_cell_setting            triclinic
loop_
_symmetry_equiv_pos_as_xyz
'x, y, z'
_cell_length_a     19.922321
_cell_length_b     22.72022
_cell_length_c     16.598844
_cell_angle_alpha  87.255126
_cell_angle_beta   91.561286
_cell_angle_gamma 124.77145
loop_
_atom_site_label
_atom_site_type_symbol
_atom_site_fract_x
_atom_site_fract_y
_atom_site_fract_z
_atom_type_partial_charge
Cu0 Cu 1.01802 0.50676 0.07003 0.0
N1 N 0.04086 0.48378 0.97266 0.0
N2 N 1.02042 0.40971 0.87543 0.0
C3 C 1.00594 0.4157 0.95249 0.0
C4 C 0.07086 0.47844 0.84743 0.0
C5 C 0.08355 0.52407 0.90743 0.0
O6 O 0.8997 0.46478 0.07656 0.0
C7 C 0.14512 0.50944 0.14552 0.0
O8 O 0.18304 0.55398 0.08352 0.0
H9 H 0.96366 0.37028 0.99161 0.0
H10 H 0.11579 0.58175 0.90165 0.0
N11 N 0.06518 0.60498 0.07992 0.0
N12 N 0.12107 0.70271 0.15309 0.0
C13 C 0.12021 0.6447 0.1369 0.0
C14 C 1.03092 0.64033 1.05834 0.0
C15 C 0.06526 0.7008 0.10361 0.0
C16 C 0.84316 0.42162 1.02823 0.0
O17 O 0.83794 0.36425 1.00728 0.0
H18 H 0.15275 0.6276 0.17255 0.0
H19 H 0.97966 0.62043 1.01788 0.0
O20 O 0.06823 0.47933 0.15369 0.0
H21 H 0.08847 0.49449 0.78485 0.0
H22 H 0.04809 0.73826 0.10272 0.0
Cu23 Cu 0.54059 0.07219 0.51933 0.0
N24 N 0.57421 0.04318 0.43369 0.0
N25 N 0.59014 0.96518 0.37405 0.0
C26 C 0.54363 0.9731 0.42372 0.0
C27 C 0.65147 0.0329 0.35078 0.0
C28 C 0.64069 0.08075 0.38632 0.0
O29 O 0.42404 0.99398 0.5219 0.0
C30 C 0.6851 0.10912 0.60886 0.0
O31 O 0.71342 0.10163 0.54265 0.0
H32 H 0.49449 0.92953 0.45996 0.0
H33 H 0.68251 0.13858 0.38388 0.0
N34 N 0.55084 0.16129 0.51568 0.0
N35 N 0.54291 0.2323 0.59994 0.0
C36 C 0.58144 0.20134 0.5821 0.0
C37 C 0.49568 0.1738 0.48695 0.0
C38 C 0.48933 0.21547 0.53942 0.0
C39 C 0.38612 0.9896 0.45644 0.0
O40 O 0.42587 0.04016 0.40036 0.0
H41 H 0.61747 0.19503 0.62598 0.0
H42 H 0.45431 0.14798 0.43759 0.0
O43 O 0.60894 0.08388 0.61407 0.0
H44 H 0.70264 0.04709 0.31316 0.0
H45 H 0.44278 0.22614 0.53763 0.0
Cu46 Cu 0.52337 0.46769 0.12278 0.0
N47 N 0.53354 0.38892 0.12839 0.0
N48 N 0.52724 0.31342 1.04009 0.0
C49 C 0.56909 0.38148 0.06468 0.0
C50 C 0.46756 0.27482 0.09493 0.0
C51 C 0.47238 0.32057 0.14956 0.0
O52 O 0.58692 0.52125 1.02491 0.0
C53 C 0.37233 0.39637 0.19087 0.0
O54 O 0.41592 0.39042 0.24705 0.0
H55 H 0.61334 0.42619 1.02704 0.0
H56 H 0.42521 0.30398 0.19299 0.0
N57 N 0.56057 0.53293 0.20623 0.0
N58 N 0.58141 0.62969 0.26359 0.0
C59 C 0.53145 0.57349 0.21709 0.0
C60 C 0.62947 0.56287 0.25002 0.0
C61 C 0.64313 0.62306 0.28419 0.0
C62 C 0.66167 0.57552 1.02639 0.0
O63 O 0.6898 0.61563 0.08944 0.0
H64 H 0.48039 0.56696 0.18362 0.0
H65 H 0.67082 0.54639 0.25053 0.0
O66 O 0.40705 0.42799 0.12368 0.0
H67 H 0.4179 0.21878 0.09041 0.0
H68 H 0.69656 0.66099 0.31882 0.0
Cu69 Cu 1.02459 0.52964 0.57696 0.0
N70 N 0.05435 0.46639 0.55969 0.0
N71 N 0.1032 0.4183 0.48707 0.0
C72 C 0.0957 0.47304 0.49357 0.0
C73 C 0.06325 0.37339 0.55085 0.0
C74 C 1.03398 0.404 0.5963 0.0
O75 O 0.08829 0.6114 0.49784 0.0
C76 C 0.8354 0.42796 0.59215 0.0
O77 O 0.76902 0.41977 0.56213 0.0
H78 H 0.11741 0.51607 0.44849 0.0
H79 H 1.00063 0.38238 0.65176 0.0
N80 N 0.05018 0.57157 0.67747 0.0
N81 N 1.00112 0.6025 0.77408 0.0
C82 C 0.9899 0.54907 0.73033 0.0
C83 C 0.10464 0.64186 0.69197 0.0
C84 C 0.07483 0.66099 0.75259 0.0
C85 C 0.16628 0.64553 0.49412 0.0
O86 O 0.20353 0.62598 0.5434 0.0
H87 H 0.93355 0.49664 0.72907 0.0
H88 H 0.1564 0.67916 0.65399 0.0
O89 O 0.9045 0.47889 0.56084 0.0
H90 H 0.05855 0.32419 0.5653 0.0
H91 H 0.10047 0.71476 0.77186 0.0
Cu92 Cu 0.56827 1.01859 1.03588 0.0
N93 N 0.48647 1.00556 0.96023 0.0
N94 N 0.42503 0.05274 0.89521 0.0
C95 C 0.49182 0.06526 0.93438 0.0
C96 C 0.37233 0.98078 0.8969 0.0
C97 C 0.41061 0.95166 0.93677 0.0
O98 O 0.65493 0.12098 1.00956 0.0
C99 C 0.45174 0.922 0.15024 0.0
O100 O 0.42885 0.88147 0.08778 0.0
H101 H 0.54183 0.11848 0.95001 0.0
H102 H 0.38301 0.89531 0.95009 0.0
N103 N 0.62528 0.97307 1.03142 0.0
N104 N 0.67595 0.92096 0.10663 0.0
C105 C 0.60842 0.91794 0.08224 0.0
C106 C 0.70721 1.00944 1.02004 0.0
C107 C 0.73822 0.97751 0.06564 0.0
C108 C 0.67884 0.12842 0.93641 0.0
O109 O 0.64898 0.07053 0.89507 0.0
H110 H 0.5501 0.88282 0.11149 0.0
H111 H 0.74531 0.06205 0.99137 0.0
O112 O 0.51269 0.98796 0.14283 0.0
H113 H 0.31132 0.95149 0.87168 0.0
H114 H 0.80224 0.99964 0.07571 0.0
Cu115 Cu 0.55775 0.55418 0.59767 0.0
N116 N 0.61777 0.65721 0.60303 0.0
N117 N 0.67273 0.76085 0.52828 0.0
C118 C 0.60363 0.69707 0.55181 0.0
C119 C 0.73337 0.76458 0.57015 0.0
C120 C 0.69979 0.70122 0.61554 0.0
O121 O 0.50063 0.52995 0.49209 0.0
C122 C 0.66551 0.55287 0.69602 0.0
O123 O 0.63472 0.58046 0.73672 0.0
H124 H 0.54609 0.67543 0.52153 0.0
H125 H 0.7364 0.68547 0.64497 0.0
N126 N 0.47582 0.48423 0.67283 0.0
N127 N 0.41602 0.37532 0.73704 0.0
C128 C 0.48223 0.43034 0.69812 0.0
C129 C 0.39912 0.46054 0.69545 0.0
C130 C 0.36188 0.39297 0.73492 0.0
C131 C 0.44193 0.53803 0.48612 0.0
O132 O 0.4229 0.55863 0.5489 0.0
H133 H 0.53234 0.42755 0.68188 0.0
H134 H 0.37027 0.48815 0.68166 0.0
O135 O 0.64334 0.53726 0.6224 0.0
H136 H 0.7979 0.80539 0.56102 0.0
H137 H 0.30077 0.36024 0.75985 0.0
C138 C 0.3914 0.52253 0.41315 0.0
C139 C 0.19485 0.50363 0.2084 0.0
O140 O 0.33137 0.45782 0.40178 0.0
Zn141 Zn 0.22373 0.40258 0.32692 0.0
O142 O 0.39359 0.57311 0.37406 0.0
Zn143 Zn 0.29644 0.51665 0.30681 0.0
O144 O 0.20268 0.47503 0.39291 0.0
O145 O 0.14112 0.35824 0.41352 0.0
O146 O 0.26317 0.55977 0.22794 0.0
O147 O 0.17253 0.44228 0.23992 0.0
O148 O 0.24937 0.34859 0.26215 0.0
O149 O 0.32966 0.46468 0.23428 0.0
C150 C 0.14918 0.41618 0.43008 0.0
C151 C 0.30831 0.4013 0.22194 0.0
C152 C 0.82412 0.37864 0.66124 0.0
C153 C 0.73038 0.19738 0.89097 0.0
O154 O 0.76917 0.35964 0.71374 0.0
Zn155 Zn 0.77287 0.2874 0.78015 0.0
O156 O 0.86079 0.34729 0.66329 0.0
Zn157 Zn 0.85849 0.26621 0.73976 0.0
O158 O 0.81939 0.18819 0.6649 0.0
O159 O 0.72154 0.19827 0.70327 0.0
O160 O 0.78428 0.20312 0.84419 0.0
O161 O 0.70622 0.23827 0.87786 0.0
O162 O 0.88968 0.34917 0.83214 0.0
O163 O 0.96987 0.32081 0.7845 0.0
C164 C 0.74424 0.16543 0.66391 0.0
C165 C 0.95922 0.35839 0.82987 0.0
C166 C 0.58684 0.90457 0.36068 0.0
C167 C 0.58044 0.6883 0.27654 0.0
O168 O 0.65334 0.91152 0.3455 0.0
Zn169 Zn 0.70072 0.8537 0.31745 0.0
O170 O 0.51986 0.84185 0.3606 0.0
Zn171 Zn 0.56098 0.78551 0.31808 0.0
O172 O 0.61161 0.77753 0.42264 0.0
O173 O 0.746 0.84684 0.42545 0.0
O174 O 0.5145 0.68568 0.27868 0.0
O175 O 0.64835 0.74746 0.28959 0.0
O176 O 0.74647 0.9048 0.20943 0.0
O177 O 0.61216 0.84343 0.21237 0.0
C178 C 0.67792 0.79893 0.45971 0.0
C179 C 0.67909 0.88691 0.17525 0.0
C180 C 0.80571 0.44943 0.97481 0.0
C181 C 0.71557 0.53495 0.74281 0.0
O182 O 0.75145 0.41022 0.92315 0.0
Zn183 Zn 0.75157 0.4852 0.85841 0.0
O184 O 0.83848 0.51696 0.97154 0.0
Zn185 Zn 0.83736 0.59527 0.89629 0.0
O186 O 0.79566 0.6328 0.96927 0.0
O187 O 0.6997 0.52294 0.93377 0.0
O188 O 0.76726 0.58278 0.79086 0.0
O189 O 0.69055 0.46979 0.75679 0.0
O190 O 0.87002 0.53819 0.81518 0.0
O191 O 0.95065 0.6497 0.8537 0.0
C192 C 0.72118 0.57902 0.97151 0.0
C193 C 0.94044 0.59738 0.81623 0.0
C194 C 0.40536 0.88768 0.22587 0.0
C195 C 0.21564 0.70405 0.43314 0.0
O196 O 0.34404 0.88986 0.24032 0.0
Zn197 Zn 0.23855 0.83402 0.31929 0.0
O198 O 0.41096 0.84063 0.2636 0.0
Zn199 Zn 0.31507 0.79634 0.33379 0.0
O200 O 0.2221 0.74492 0.24622 0.0
O201 O 0.15366 0.79451 0.23524 0.0
O202 O 0.28412 0.71805 0.41078 0.0
O203 O 0.19131 0.74225 0.404 0.0
O204 O 0.26246 0.91176 0.38708 0.0
O205 O 0.3473 0.88022 0.40922 0.0
C206 C 0.16617 0.74872 0.21232 0.0
C207 C 0.3235 0.91993 0.42495 0.0
C208 C 0.5242 0.29442 0.9627 0.0
C209 C 0.53424 0.24664 0.67627 0.0
O210 O 0.58788 0.32611 0.91865 0.0
Zn211 Zn 0.53723 0.27488 0.81957 0.0
O212 O 0.4545 0.24857 0.93138 0.0
Zn213 Zn 0.40227 0.20476 0.81629 0.0
O214 O 0.35294 0.09864 0.84249 0.0
O215 O 0.48642 0.16926 0.85692 0.0
O216 O 0.46208 0.21885 0.70381 0.0
O217 O 0.59542 0.28007 0.72348 0.0
O218 O 0.48175 0.32501 0.77921 0.0
O219 O 0.34764 0.25695 0.78807 0.0
C220 C 0.42002 0.10685 0.86342 0.0
C221 C 0.41362 0.31764 0.76968 0.0
loop_
_geom_bond_atom_site_label_1
_geom_bond_atom_site_label_2
_geom_bond_distance
_geom_bond_site_symmetry_2
_ccdc_geom_bond_type
Cu0 N1 1.999 1_554 S
Cu0 O6 1.974 1_554 S
Cu0 N11 1.985 1_655 S
Cu0 O20 1.959 1_655 S
N1 Cu0 1.999 1_556 S
N1 C3 1.263 . S
N1 C5 1.389 1_556 S
N2 C3 1.358 . S
N2 C4 1.400 . S
C3 N1 1.263 . S
C3 N2 1.358 . S
C3 H9 0.930 . S
C4 N2 1.400 . S
C4 C5 1.351 1_556 S
C4 H21 0.930 . S
C5 N1 1.389 1_554 S
C5 C4 1.351 1_554 S
C5 H10 0.930 . S
O6 Cu0 1.974 1_556 S
O6 C16 1.282 . S
C7 O8 1.261 . S
C7 O20 1.251 . S
O8 C7 1.261 . S
H9 C3 0.930 . S
H10 C5 0.930 . S
N11 Cu0 1.985 1_455 S
N11 C13 1.335 . S
N11 C14 1.390 . S
N12 C13 1.345 . S
N12 C15 1.336 . S
C13 N11 1.335 . S
C13 N12 1.345 . S
C13 H18 0.930 . S
C14 N11 1.390 . S
C14 C15 1.346 . S
C14 H19 0.930 1_554 S
C15 N12 1.336 . S
C15 C14 1.346 . S
C15 H22 0.929 . S
C16 O6 1.282 . S
C16 O17 1.216 1_655 S
O17 C16 1.216 1_455 S
H18 C13 0.930 . S
H19 C14 0.930 1_556 S
O20 Cu0 1.959 1_455 S
O20 C7 1.251 . S
H21 C4 0.930 . S
H22 C15 0.929 . S
Cu23 N24 1.999 . S
Cu23 O29 1.974 . S
Cu23 N34 1.985 1_565 S
Cu23 O43 1.959 1_565 S
N24 Cu23 1.999 . S
N24 C26 1.263 . S
N24 C28 1.389 . S
N25 C26 1.358 . S
N25 C27 1.400 . S
C26 N24 1.263 . S
C26 N25 1.358 . S
C26 H32 0.930 . S
C27 N25 1.400 . S
C27 C28 1.351 . S
C27 H44 0.930 . S
C28 N24 1.389 . S
C28 C27 1.351 . S
C28 H33 0.930 . S
O29 Cu23 1.974 . S
O29 C39 1.282 . S
C30 O31 1.261 . S
C30 O43 1.251 . S
O31 C30 1.261 . S
H32 C26 0.930 . S
H33 C28 0.930 . S
N34 Cu23 1.985 1_545 S
N34 C36 1.335 . S
N34 C37 1.390 . S
N35 C36 1.345 . S
N35 C38 1.336 . S
C36 N34 1.335 . S
C36 N35 1.345 . S
C36 H41 0.930 . S
C37 N34 1.390 . S
C37 C38 1.346 . S
C37 H42 0.931 . S
C38 N35 1.336 . S
C38 C37 1.346 . S
C38 H45 0.929 . S
C39 O29 1.282 . S
C39 O40 1.227 . S
O40 C39 1.227 . S
H41 C36 0.930 . S
H42 C37 0.931 . S
O43 Cu23 1.959 1_545 S
O43 C30 1.251 . S
H44 C27 0.930 . S
H45 C38 0.929 . S
Cu46 N47 1.999 . S
Cu46 O52 1.974 . S
Cu46 N57 1.985 1_556 S
Cu46 O66 1.959 1_556 S
N47 Cu46 1.999 . S
N47 C49 1.263 . S
N47 C51 1.389 . S
N48 C49 1.358 . S
N48 C50 1.400 . S
C49 N47 1.263 . S
C49 N48 1.358 . S
C49 H55 0.930 . S
C50 N48 1.400 . S
C50 C51 1.351 . S
C50 H67 0.930 . S
C51 N47 1.389 . S
C51 C50 1.351 . S
C51 H56 0.930 . S
O52 Cu46 1.974 . S
O52 C62 1.282 . S
C53 O54 1.261 . S
C53 O66 1.251 . S
O54 C53 1.261 . S
H55 C49 0.930 . S
H56 C51 0.930 . S
N57 Cu46 1.985 1_554 S
N57 C59 1.335 . S
N57 C60 1.390 . S
N58 C59 1.345 . S
N58 C61 1.336 . S
C59 N57 1.335 . S
C59 N58 1.345 . S
C59 H64 0.930 . S
C60 N57 1.390 . S
C60 C61 1.346 . S
C60 H65 0.930 . S
C61 N58 1.336 . S
C61 C60 1.346 . S
C61 H68 0.929 . S
C62 O52 1.282 . S
C62 O63 1.225 . S
O63 C62 1.225 . S
H64 C59 0.930 . S
H65 C60 0.930 . S
O66 Cu46 1.959 1_554 S
O66 C53 1.251 . S
H67 C50 0.930 . S
H68 C61 0.929 . S
Cu69 N70 1.999 1_655 S
Cu69 O75 1.974 1_655 S
Cu69 N80 1.985 . S
Cu69 O89 1.959 . S
N70 Cu69 1.999 1_455 S
N70 C72 1.263 . S
N70 C74 1.389 1_455 S
N71 C72 1.358 . S
N71 C73 1.400 . S
C72 N70 1.263 . S
C72 N71 1.358 . S
C72 H78 0.930 . S
C73 N71 1.400 . S
C73 C74 1.351 1_455 S
C73 H90 0.930 1_455 S
C74 N70 1.389 1_655 S
C74 C73 1.351 1_655 S
C74 H79 0.930 . S
O75 Cu69 1.974 1_455 S
O75 C85 1.282 . S
C76 O77 1.261 1_655 S
C76 O89 1.251 . S
O77 C76 1.261 1_455 S
H78 C72 0.930 . S
H79 C74 0.930 . S
N80 Cu69 1.985 . S
N80 C82 1.335 . S
N80 C83 1.390 . S
N81 C82 1.345 . S
N81 C84 1.336 . S
C82 N80 1.335 . S
C82 N81 1.345 . S
C82 H87 0.930 . S
C83 N80 1.390 . S
C83 C84 1.346 . S
C83 H88 0.930 1_655 S
C84 N81 1.336 . S
C84 C83 1.346 . S
C84 H91 0.929 . S
C85 O75 1.282 . S
C85 O86 1.216 . S
O86 C85 1.216 . S
H87 C82 0.930 . S
H88 C83 0.930 1_455 S
O89 Cu69 1.959 . S
O89 C76 1.251 . S
H90 C73 0.930 1_655 S
H91 C84 0.929 . S
Cu92 N93 1.999 1_554 S
Cu92 O98 1.974 1_554 S
Cu92 N103 1.985 1_545 S
Cu92 O112 1.959 1_545 S
N93 Cu92 1.999 1_556 S
N93 C95 1.263 . S
N93 C97 1.389 1_556 S
N94 C95 1.358 . S
N94 C96 1.400 . S
C95 N93 1.263 . S
C95 N94 1.358 . S
C95 H101 0.930 . S
C96 N94 1.400 . S
C96 C97 1.351 1_556 S
C96 H113 0.930 . S
C97 N93 1.389 1_554 S
C97 C96 1.351 1_554 S
C97 H102 0.930 . S
O98 Cu92 1.974 1_556 S
O98 C108 1.282 . S
C99 O100 1.261 . S
C99 O112 1.251 . S
O100 C99 1.261 . S
H101 C95 0.930 . S
H102 C97 0.930 . S
N103 Cu92 1.985 1_565 S
N103 C105 1.335 . S
N103 C106 1.390 . S
N104 C105 1.345 . S
N104 C107 1.336 . S
C105 N103 1.335 . S
C105 N104 1.345 . S
C105 H110 0.930 . S
C106 N103 1.390 . S
C106 C107 1.346 . S
C106 H111 0.930 1_564 S
C107 N104 1.336 . S
C107 C106 1.346 . S
C107 H114 0.929 . S
C108 O98 1.282 . S
C108 O109 1.216 . S
O109 C108 1.216 . S
H110 C105 0.930 . S
H111 C106 0.930 1_546 S
O112 Cu92 1.959 1_565 S
O112 C99 1.251 . S
H113 C96 0.930 . S
H114 C107 0.929 . S
Cu115 N116 1.999 . S
Cu115 O121 1.974 . S
Cu115 N126 1.985 . S
Cu115 O135 1.959 . S
N116 Cu115 1.999 . S
N116 C118 1.263 . S
N116 C120 1.389 . S
N117 C118 1.358 . S
N117 C119 1.400 . S
C118 N116 1.263 . S
C118 N117 1.358 . S
C118 H124 0.930 . S
C119 N117 1.400 . S
C119 C120 1.351 . S
C119 H136 0.930 . S
C120 N116 1.389 . S
C120 C119 1.351 . S
C120 H125 0.930 . S
O121 Cu115 1.974 . S
O121 C131 1.282 . S
C122 O123 1.261 . S
C122 O135 1.251 . S
O123 C122 1.261 . S
H124 C118 0.930 . S
H125 C120 0.930 . S
N126 Cu115 1.985 . S
N126 C128 1.335 . S
N126 C129 1.390 . S
N127 C128 1.345 . S
N127 C130 1.336 . S
C128 N126 1.335 . S
C128 N127 1.345 . S
C128 H133 0.930 . S
C129 N126 1.390 . S
C129 C130 1.346 . S
C129 H134 0.930 . S
C130 N127 1.336 . S
C130 C129 1.346 . S
C130 H137 0.929 . S
C131 O121 1.282 . S
C131 O132 1.216 . S
O132 C131 1.216 . S
H133 C128 0.930 . S
H134 C129 0.930 . S
O135 Cu115 1.959 . S
O135 C122 1.251 . S
H136 C119 0.930 . S
H137 C130 0.929 . S
C138 O140 1.247 . S
C138 O142 1.258 . S
C139 O146 1.247 . S
C139 O147 1.258 . S
O140 C138 1.247 . S
O140 Zn141 2.028 . S
Zn141 O140 2.028 . S
Zn141 O145 2.035 . S
Zn141 O147 2.035 . S
Zn141 O148 2.028 . S
O142 C138 1.258 . S
O142 Zn143 2.035 . S
Zn143 O142 2.035 . S
Zn143 O144 2.028 . S
Zn143 O146 2.028 . S
Zn143 O149 2.035 . S
O144 Zn143 2.028 . S
O144 C150 1.247 . S
O145 Zn141 2.035 . S
O145 C150 1.258 . S
O146 C139 1.247 . S
O146 Zn143 2.028 . S
O147 C139 1.258 . S
O147 Zn141 2.035 . S
O148 Zn141 2.028 . S
O148 C151 1.247 . S
O149 Zn143 2.035 . S
O149 C151 1.258 . S
C150 O144 1.247 . S
C150 O145 1.258 . S
C151 O148 1.247 . S
C151 O149 1.258 . S
C152 O154 1.247 . S
C152 O156 1.258 . S
C153 O160 1.247 . S
C153 O161 1.258 . S
O154 C152 1.247 . S
O154 Zn155 2.028 . S
Zn155 O154 2.028 . S
Zn155 O159 2.035 . S
Zn155 O161 2.035 . S
Zn155 O162 2.028 . S
O156 C152 1.258 . S
O156 Zn157 2.035 . S
Zn157 O156 2.035 . S
Zn157 O158 2.028 . S
Zn157 O160 2.028 . S
Zn157 O163 2.035 . S
O158 Zn157 2.028 . S
O158 C164 1.247 . S
O159 Zn155 2.035 . S
O159 C164 1.258 . S
O160 C153 1.247 . S
O160 Zn157 2.028 . S
O161 C153 1.258 . S
O161 Zn155 2.035 . S
O162 Zn155 2.028 . S
O162 C165 1.247 . S
O163 Zn157 2.035 . S
O163 C165 1.258 . S
C164 O158 1.247 . S
C164 O159 1.258 . S
C165 O162 1.247 . S
C165 O163 1.258 . S
C166 O168 1.247 . S
C166 O170 1.258 . S
C167 O174 1.247 . S
C167 O175 1.258 . S
O168 C166 1.247 . S
O168 Zn169 2.028 . S
Zn169 O168 2.028 . S
Zn169 O173 2.035 . S
Zn169 O175 2.035 . S
Zn169 O176 2.028 . S
O170 C166 1.258 . S
O170 Zn171 2.035 . S
Zn171 O170 2.035 . S
Zn171 O172 2.028 . S
Zn171 O174 2.028 . S
Zn171 O177 2.035 . S
O172 Zn171 2.028 . S
O172 C178 1.247 . S
O173 Zn169 2.035 . S
O173 C178 1.258 . S
O174 C167 1.247 . S
O174 Zn171 2.028 . S
O175 C167 1.258 . S
O175 Zn169 2.035 . S
O176 Zn169 2.028 . S
O176 C179 1.247 . S
O177 Zn171 2.035 . S
O177 C179 1.258 . S
C178 O172 1.247 . S
C178 O173 1.258 . S
C179 O176 1.247 . S
C179 O177 1.258 . S
C180 O182 1.247 . S
C180 O184 1.258 . S
C181 O188 1.247 . S
C181 O189 1.258 . S
O182 C180 1.247 . S
O182 Zn183 2.028 . S
Zn183 O182 2.028 . S
Zn183 O187 2.035 . S
Zn183 O189 2.035 . S
Zn183 O190 2.028 . S
O184 C180 1.258 . S
O184 Zn185 2.035 . S
Zn185 O184 2.035 . S
Zn185 O186 2.028 . S
Zn185 O188 2.028 . S
Zn185 O191 2.035 . S
O186 Zn185 2.028 . S
O186 C192 1.247 . S
O187 Zn183 2.035 . S
O187 C192 1.258 . S
O188 C181 1.247 . S
O188 Zn185 2.028 . S
O189 C181 1.258 . S
O189 Zn183 2.035 . S
O190 Zn183 2.028 . S
O190 C193 1.247 . S
O191 Zn185 2.035 . S
O191 C193 1.258 . S
C192 O186 1.247 . S
C192 O187 1.258 . S
C193 O190 1.247 . S
C193 O191 1.258 . S
C194 O196 1.247 . S
C194 O198 1.258 . S
C195 O202 1.247 . S
C195 O203 1.258 . S
O196 C194 1.247 . S
O196 Zn197 2.028 . S
Zn197 O196 2.028 . S
Zn197 O201 2.035 . S
Zn197 O203 2.035 . S
Zn197 O204 2.028 . S
O198 C194 1.258 . S
O198 Zn199 2.035 . S
Zn199 O198 2.035 . S
Zn199 O200 2.028 . S
Zn199 O202 2.028 . S
Zn199 O205 2.035 . S
O200 Zn199 2.028 . S
O200 C206 1.247 . S
O201 Zn197 2.035 . S
O201 C206 1.258 . S
O202 C195 1.247 . S
O202 Zn199 2.028 . S
O203 C195 1.258 . S
O203 Zn197 2.035 . S
O204 Zn197 2.028 . S
O204 C207 1.247 . S
O205 Zn199 2.035 . S
O205 C207 1.258 . S
C206 O200 1.247 . S
C206 O201 1.258 . S
C207 O204 1.247 . S
C207 O205 1.258 . S
C208 O210 1.247 . S
C208 O212 1.258 . S
C209 O216 1.247 . S
C209 O217 1.258 . S
O210 C208 1.247 . S
O210 Zn211 2.028 . S
Zn211 O210 2.028 . S
Zn211 O215 2.035 . S
Zn211 O217 2.035 . S
Zn211 O218 2.028 . S
O212 C208 1.258 . S
O212 Zn213 2.035 . S
Zn213 O212 2.035 . S
Zn213 O214 2.028 . S
Zn213 O216 2.028 . S
Zn213 O219 2.035 . S
O214 Zn213 2.028 . S
O214 C220 1.247 . S
O215 Zn211 2.035 . S
O215 C220 1.258 . S
O216 C209 1.247 . S
O216 Zn213 2.028 . S
O217 C209 1.258 . S
O217 Zn211 2.035 . S
O218 Zn211 2.028 . S
O218 C221 1.247 . S
O219 Zn213 2.035 . S
O219 C221 1.258 . S
C220 O214 1.247 . S
C220 O215 1.258 . S
C221 O218 1.247 . S
C221 O219 1.258 . S
C7 C139 2.177 . S
C30 C164 1.708 . S
C167 N58 1.761 . S
C193 N81 1.364 . S
C194 C99 2.059 . S
C221 N127 1.395 . S
N25 C166 1.856 . S
C62 C192 1.790 . S
C195 C85 2.077 . S
C220 N94 1.582 . S
C131 C138 2.167 . S
C165 N2 1.470 . S
C180 C16 2.108 . S
C39 C207 1.632 . S
C208 N48 1.807 . S
N71 C150 1.368 . S
C108 C153 1.966 . S
N117 C178 1.410 . S
N35 C209 1.734 . S
C151 C53 1.684 . S
C76 C152 2.100 . S
N104 C179 1.340 . S
C122 C181 1.970 . S
N12 C206 1.263 . S
