# Generated by pormake.
# Topology pts, (4,4)-cn, num edge types: 1
# Building blocks:
#     Node 0, Type 0, BuildingBlock: MUDLON_clean_sbu_0, # of connection points: 4
#     Node 1, Type 0, BuildingBlock: MUDLON_clean_sbu_0, # of connection points: 4
#     Node 2, Type 1, BuildingBlock: QUQFOY_clean_sbu_1, # of connection points: 4
#     Node 3, Type 1, BuildingBlock: QUQFOY_clean_sbu_1, # of connection points: 4
#     Edge 4, Type (0, 1), BuildingBlock: XIVTED_clean_linker_0, # of connection points: 2
#     Edge 5, Type (0, 1), BuildingBlock: XIVTED_clean_linker_0, # of connection points: 2
#     Edge 6, Type (0, 1), BuildingBlock: XIVTED_clean_linker_0, # of connection points: 2
#     Edge 7, Type (0, 1), BuildingBlock: XIVTED_clean_linker_0, # of connection points: 2
#     Edge 8, Type (0, 1), BuildingBlock: XIVTED_clean_linker_0, # of connection points: 2
#     Edge 9, Type (0, 1), BuildingBlock: XIVTED_clean_linker_0, # of connection points: 2
#     Edge 10, Type (0, 1), BuildingBlock: XIVTED_clean_linker_0, # of connection points: 2
#     Edge 11, Type (0, 1), BuildingBlock: XIVTED_clean_linker_0, # of connection points: 2
# Relax obj value: 0.129
# Max RMSD: 0.244
# Mean RMSD: 0.144
data_MOF--net-pts--node1-MUDLON_clean_sbu_0--node2-QUQFOY_clean_sbu_1--edge1-XIVTED_clean_linker_0
_symmetry_space_group_name_H-M    P1
_symmetry_Int_Tables_number       1
_symmetry_cell_setting            triclinic
loop_
_symmetry_equiv_pos_as_xyz
'x, y, z'
_cell_length_a     22.369778
_cell_length_b     23.30073
_cell_length_c     40.888321
_cell_angle_alpha  89.883051
_cell_angle_beta   89.919875
_cell_angle_gamma 90.103987
loop_
_atom_site_label
_atom_site_type_symbol
_atom_site_fract_x
_atom_site_fract_y
_atom_site_fract_z
_atom_type_partial_charge
Mg0 Mg 0.47976 0.03962 0.0292 0.0
C1 C 0.38283 0.97135 0.98801 0.0
O2 O 0.41129 0.92309 0.99371 0.0
C3 C 0.57242 0.95904 0.05757 0.0
O4 O 0.59796 0.9671 0.029 0.0
C5 C 0.39682 0.1252 0.06019 0.0
O6 O 0.3729 0.12473 0.03087 0.0
O7 O 0.44758 0.10188 0.06428 0.0
O8 O 0.40133 1.01777 1.00071 0.0
O9 O 0.54621 0.06652 0.99324 0.0
C10 C 0.54953 0.03128 0.96954 0.0
O11 O 0.51454 0.98601 0.96992 0.0
O12 O 0.51935 0.97688 0.06195 0.0
Mg13 Mg -0.01 0.52955 0.51385 0.0
C14 C 0.05785 0.57925 0.57269 0.0
O15 O 0.05554 0.52638 0.58385 0.0
C16 C 0.0419 0.42071 0.48627 0.0
O17 O 0.0291 0.40229 0.51585 0.0
C18 C 0.93454 0.63792 0.48753 0.0
O19 O 0.9479 0.65597 0.51705 0.0
O20 O 0.93961 0.58474 0.48111 0.0
O21 O 0.04132 0.58929 0.54352 0.0
O22 O 0.94119 0.47059 0.54552 0.0
C23 C 0.92481 0.48164 0.5746 0.0
O24 O 0.92647 0.53497 0.58494 0.0
O25 O 0.03775 0.47411 0.48014 0.0
O26 O 0.93184 0.96788 0.22689 0.0
Cd27 Cd 0.00266 0.97684 0.25868 0.0
Cd28 Cd 0.9645 0.08306 0.25904 0.0
O29 O 0.88649 0.04846 0.24001 0.0
O30 O 0.01756 0.89806 0.27611 0.0
O31 O -0.01588 0.96963 0.30655 0.0
C32 C -0.00221 0.916 0.30395 0.0
C33 C 0.96977 0.14175 0.30499 0.0
C34 C 0.8865 1.00052 0.22514 0.0
C35 C 0.08112 0.06085 0.22577 0.0
O36 O 0.03566 0.0933 0.22752 0.0
O37 O 0.08089 1.01241 0.24023 0.0
O38 O 0.94998 0.16106 0.27745 0.0
O39 O -0.0171 0.08789 0.30694 0.0
O40 O 0.91223 0.0784 0.80156 0.0
Cd41 Cd -0.01118 0.08878 0.77445 0.0
Cd42 Cd 0.9776 0.97072 0.77065 0.0
O43 O 0.89435 0.98724 0.79076 0.0
O44 O -0.01053 0.17266 0.76471 0.0
O45 O 0.98138 0.10647 0.72631 0.0
C46 C 0.98196 0.16012 0.7343 0.0
C47 C -0.01004 0.89901 0.73109 0.0
C48 C 0.87903 0.03436 0.80401 0.0
C49 C 0.08122 1.02058 0.80916 0.0
O50 O 0.04952 0.97726 0.80176 0.0
O51 O 0.06769 0.07019 0.79847 0.0
O52 O 0.97735 0.88687 0.76104 0.0
O53 O -0.00721 0.95256 0.72297 0.0
H54 H 0.28766 0.17811 0.06236 0.0
H55 H 0.19344 1.01334 0.22331 0.0
H56 H 0.4156 0.09011 0.12337 0.0
H57 H 0.08686 0.14984 0.18221 0.0
H58 H 0.27591 0.04125 0.18712 0.0
H59 H 0.21423 0.17117 0.10657 0.0
C60 C 0.30076 0.15848 0.08529 0.0
C61 C 0.35769 0.13415 0.08898 0.0
C62 C 0.23466 0.06547 0.18632 0.0
C63 C 0.27342 0.12471 0.13934 0.0
C64 C 0.18747 0.04934 0.20684 0.0
C65 C 0.13297 0.07898 0.20564 0.0
C66 C 0.22695 0.11093 0.16408 0.0
C67 C 0.12796 0.12558 0.18393 0.0
C68 C 0.25875 0.15434 0.11049 0.0
C69 C 0.37219 0.10928 0.11931 0.0
N70 N 0.17402 0.13964 0.16375 0.0
N71 N 0.32995 0.10418 0.14307 0.0
H72 H 0.91532 0.48766 0.6414 0.0
H73 H 0.96431 0.14978 0.66799 0.0
H74 H 0.92451 0.366 0.56205 0.0
H75 H 0.97316 0.2754 0.74529 0.0
H76 H 0.94157 0.22689 0.6291 0.0
H77 H 0.92516 0.40851 0.68027 0.0
C78 C 0.91834 0.44426 0.63212 0.0
C79 C 0.91949 0.43365 0.59834 0.0
C80 C 0.94851 0.23752 0.65459 0.0
C81 C 0.93181 0.3427 0.64281 0.0
C82 C 0.96174 0.19353 0.67677 0.0
C83 C 0.97101 0.20611 0.70994 0.0
C84 C 0.94424 0.29446 0.66567 0.0
C85 C 0.96671 0.26361 0.71994 0.0
C86 C 0.92447 0.39905 0.65435 0.0
C87 C 0.92374 0.37635 0.58785 0.0
N88 N 0.95363 0.30552 0.69795 0.0
N89 N 0.93023 0.33314 0.60997 0.0
H90 H 0.54944 0.9832 0.12194 0.0
H91 H 0.88274 0.91472 0.17972 0.0
H92 H 0.68309 0.9092 0.05858 0.0
H93 H 0.7738 0.04733 0.22292 0.0
H94 H 0.80091 0.89158 0.14246 0.0
H95 H 0.62224 0.98411 0.16652 0.0
C96 C 0.59356 0.96569 0.11759 0.0
C97 C 0.61045 0.94664 0.08632 0.0
C98 C 0.79481 0.92536 0.16031 0.0
C99 C 0.69378 0.94796 0.13723 0.0
C100 C 0.8414 0.93862 0.18164 0.0
C101 C 0.83536 0.98352 0.2043 0.0
C102 C 0.74141 0.95664 0.16186 0.0
C103 C 0.78064 1.01283 0.20563 0.0
C104 C 0.63519 0.96679 0.14299 0.0
C105 C 0.66836 0.92473 0.08219 0.0
N106 N 0.73578 0.99897 0.18462 0.0
N107 N 0.70813 0.9264 0.10728 0.0
H108 H 0.06114 0.69436 0.55841 0.0
H109 H -0.00323 0.78413 0.74344 0.0
H110 H 0.06376 0.57568 0.63962 0.0
H111 H 0.01578 0.90779 0.66535 0.0
H112 H 0.02313 0.70784 0.70549 0.0
H113 H 0.04949 0.77365 0.59693 0.0
C114 C 0.06036 0.68499 0.58437 0.0
C115 C 0.06303 0.62807 0.59574 0.0
C116 C 0.0217 0.75162 0.69658 0.0
C117 C 0.0486 0.71877 0.63996 0.0
C118 C 0.00625 0.7953 0.71823 0.0
C119 C 0.0037 0.85255 0.70755 0.0
C120 C 0.03445 0.76493 0.6638 0.0
C121 C 0.01692 0.86426 0.67462 0.0
C122 C 0.05339 0.73034 0.60635 0.0
C123 C 0.06179 0.61872 0.62966 0.0
N124 N 0.03151 0.82079 0.65387 0.0
N125 N 0.05397 0.66348 0.6505 0.0
H126 H 0.33812 0.88531 0.94872 0.0
H127 H 0.14558 0.10423 0.84051 0.0
H128 H 0.32079 0.06635 0.96909 0.0
H129 H 0.1288 0.92016 0.83225 0.0
H130 H 0.21879 0.09073 0.88408 0.0
H131 H 0.26727 0.89646 0.90336 0.0
C132 C 0.3191 0.92718 0.9439 0.0
C133 C 0.3356 0.97492 0.96274 0.0
C134 C 0.19924 0.05327 0.87265 0.0
C135 C 0.2556 0.98815 0.91068 0.0
C136 C 0.15775 0.06098 0.84758 0.0
C137 C 0.13071 1.0133 0.8328 0.0
C138 C 0.21411 0.99749 0.88294 0.0
C139 C 0.14822 0.95821 0.84309 0.0
C140 C 0.27892 0.93358 0.91793 0.0
C141 C 0.30967 0.02826 0.95525 0.0
N142 N 0.18868 0.9518 0.86759 0.0
N143 N 0.27136 0.03343 0.92976 0.0
H144 H 0.04412 0.44336 0.42043 0.0
H145 H 0.00433 0.11468 0.36756 0.0
H146 H 0.04498 0.30319 0.48967 0.0
H147 H 0.96392 0.25887 0.30498 0.0
H148 H 0.03072 0.18169 0.41138 0.0
H149 H 0.02981 0.37451 0.3762 0.0
C150 C 0.04236 0.39805 0.42633 0.0
C151 C 0.0452 0.37915 0.45892 0.0
C152 C 0.01594 0.19857 0.38807 0.0
C153 C 0.02795 0.30006 0.40831 0.0
C154 C 0.00063 0.16038 0.36309 0.0
C155 C 0.98154 0.18118 0.3326 0.0
C156 C 0.01273 0.25798 0.38239 0.0
C157 C 0.97799 0.24084 0.32814 0.0
C158 C 0.03364 0.35877 0.40105 0.0
C159 C 0.04263 0.31979 0.46496 0.0
N160 N -0.00637 0.27707 0.35269 0.0
N161 N 0.0337 0.28239 0.43993 0.0
H162 H 0.63371 0.11657 0.96057 0.0
H163 H 0.7927 0.95191 0.8129 0.0
H164 H 0.56695 0.9596 0.91803 0.0
H165 H 0.84207 0.12327 0.8427 0.0
H166 H 0.70879 0.95487 0.85113 0.0
H167 H 0.71014 0.12098 0.9175 0.0
C168 C 0.63489 0.0833 0.94213 0.0
C169 C 0.59414 0.0375 0.94305 0.0
C170 C 0.73771 0.99202 0.84911 0.0
C171 C 0.68128 0.04205 0.89394 0.0
C172 C 0.78565 0.99033 0.82726 0.0
C173 C 0.82471 0.03726 0.82466 0.0
C174 C 0.72904 0.04077 0.86877 0.0
C175 C 0.8132 0.08599 0.8439 0.0
C176 C 0.67842 0.08583 0.91754 0.0
C177 C 0.59761 0.99558 0.91847 0.0
N178 N 0.76675 0.08628 0.86534 0.0
N179 N 0.64057 0.99869 0.89511 0.0
H180 H 0.9267 0.75515 0.49154 0.0
H181 H 0.00691 0.79909 0.30294 0.0
H182 H 0.93394 0.61678 0.42158 0.0
H183 H 0.9628 0.94004 0.36687 0.0
H184 H -0.01728 0.732 0.34691 0.0
H185 H 0.93868 0.82395 0.44673 0.0
C186 C 0.92977 0.73921 0.46672 0.0
C187 C 0.92976 0.67997 0.4604 0.0
C188 C 0.97824 0.77758 0.35136 0.0
C189 C 0.9447 0.75854 0.40906 0.0
C190 C -0.00747 0.816 0.32631 0.0
C191 C -0.01288 0.87535 0.33124 0.0
C192 C 0.95879 0.79851 0.38175 0.0
C193 C 0.96779 0.89465 0.36201 0.0
C194 C 0.93691 0.77856 0.44116 0.0
C195 C 0.93389 0.66195 0.42771 0.0
N196 N 0.95451 0.85634 0.38614 0.0
N197 N 0.94194 0.70101 0.40336 0.0
loop_
_geom_bond_atom_site_label_1
_geom_bond_atom_site_label_2
_geom_bond_distance
_geom_bond_site_symmetry_2
_ccdc_geom_bond_type
Mg0 O7 2.141 . S
Mg0 O8 2.048 1_554 S
Mg0 O9 2.048 1_554 S
Mg0 O12 2.141 . S
C1 O2 1.313 . S
C1 O8 1.195 1_565 S
O2 C1 1.313 . S
C3 O4 1.245 . S
C3 O12 1.289 1_565 S
O4 C3 1.245 . S
C5 O6 1.245 . S
C5 O7 1.289 1_565 S
O6 C5 1.245 . S
O7 Mg0 2.141 . S
O7 C5 1.289 1_545 S
O8 Mg0 2.048 1_556 S
O8 C1 1.195 1_545 S
O9 Mg0 2.048 1_556 S
O9 C10 1.195 1_545 S
C10 O9 1.195 1_565 S
C10 O11 1.313 . S
O11 C10 1.313 . S
O12 Mg0 2.141 . S
O12 C3 1.289 1_545 S
Mg13 O20 2.141 . S
Mg13 O21 2.048 . S
Mg13 O22 2.048 . S
Mg13 O25 2.141 . S
C14 O15 1.313 . S
C14 O21 1.195 1_455 S
O15 C14 1.313 . S
C16 O17 1.245 . S
C16 O25 1.289 1_455 S
O17 C16 1.245 . S
C18 O19 1.245 . S
C18 O20 1.289 1_455 S
O19 C18 1.245 . S
O20 Mg13 2.141 . S
O20 C18 1.289 1_655 S
O21 Mg13 2.048 . S
O21 C14 1.195 1_655 S
O22 Mg13 2.048 . S
O22 C23 1.195 1_655 S
C23 O22 1.195 1_455 S
C23 O24 1.313 . S
O24 C23 1.313 . S
O25 Mg13 2.141 . S
O25 C16 1.289 1_655 S
O26 Cd27 2.223 1_655 S
O26 C34 1.315 . S
Cd27 O26 2.223 1_455 S
Cd27 O30 2.297 1_455 S
Cd27 O31 2.439 1_455 S
Cd27 O37 2.240 1_565 S
Cd28 O29 2.240 1_545 S
Cd28 O36 2.223 1_655 S
Cd28 O38 2.297 1_655 S
Cd28 O39 2.439 1_655 S
O29 Cd28 2.240 1_565 S
O29 C34 1.279 . S
O30 Cd27 2.297 1_655 S
O30 C32 1.247 . S
O31 Cd27 2.439 1_655 S
O31 C32 1.208 . S
C32 O30 1.247 . S
C32 O31 1.208 . S
C33 O38 1.247 . S
C33 O39 1.208 . S
C34 O26 1.315 . S
C34 O29 1.279 . S
C35 O36 1.315 . S
C35 O37 1.279 . S
O36 Cd28 2.223 1_455 S
O36 C35 1.315 . S
O37 Cd27 2.240 1_545 S
O37 C35 1.279 . S
O38 Cd28 2.297 1_455 S
O38 C33 1.247 . S
O39 Cd28 2.439 1_455 S
O39 C33 1.208 . S
O40 Cd41 2.223 1_655 S
O40 C48 1.315 . S
Cd41 O40 2.223 1_455 S
Cd41 O44 2.297 1_455 S
Cd41 O45 2.439 1_455 S
Cd41 O51 2.240 1_545 S
Cd42 O43 2.240 1_565 S
Cd42 O50 2.223 1_655 S
Cd42 O52 2.297 1_655 S
Cd42 O53 2.439 1_655 S
O43 Cd42 2.240 1_545 S
O43 C48 1.279 . S
O44 Cd41 2.297 1_655 S
O44 C46 1.247 . S
O45 Cd41 2.439 1_655 S
O45 C46 1.208 . S
C46 O44 1.247 . S
C46 O45 1.208 . S
C47 O52 1.247 . S
C47 O53 1.208 . S
C48 O40 1.315 . S
C48 O43 1.279 . S
C49 O50 1.315 . S
C49 O51 1.279 . S
O50 Cd42 2.223 1_455 S
O50 C49 1.315 . S
O51 Cd41 2.240 1_565 S
O51 C49 1.279 . S
O52 Cd42 2.297 1_455 S
O52 C47 1.247 . S
O53 Cd42 2.439 1_455 S
O53 C47 1.208 . S
H54 C60 0.930 . S
H55 C64 0.930 . S
H56 C69 0.929 . S
H57 C67 0.929 . S
H58 C62 0.929 . S
H59 C68 0.929 . S
C60 H54 0.930 . S
C60 C61 1.367 . S
C60 C68 1.378 . S
C61 C60 1.367 . S
C61 C69 1.433 . S
C62 H58 0.929 . S
C62 C64 1.378 . S
C62 C66 1.350 . S
C63 C66 1.463 . S
C63 C68 1.350 . S
C63 N71 1.427 . S
C64 H55 0.930 . S
C64 C62 1.378 . S
C64 C65 1.367 . S
C65 C64 1.367 . S
C65 C67 1.433 . S
C66 C62 1.350 . S
C66 C63 1.463 . S
C66 N70 1.427 . S
C67 H57 0.929 . S
C67 C65 1.433 . S
C67 N70 1.384 . S
C68 H59 0.929 . S
C68 C60 1.378 . S
C68 C63 1.350 . S
C69 H56 0.929 . S
C69 C61 1.433 . S
C69 N71 1.384 . S
N70 C66 1.427 . S
N70 C67 1.384 . S
N71 C63 1.427 . S
N71 C69 1.384 . S
H72 C78 0.930 . S
H73 C82 0.930 . S
H74 C87 0.929 . S
H75 C85 0.929 . S
H76 C80 0.929 . S
H77 C86 0.929 . S
C78 H72 0.930 . S
C78 C79 1.367 1_455 S
C78 C86 1.378 . S
C79 C78 1.367 1_655 S
C79 C87 1.433 . S
C80 H76 0.929 . S
C80 C82 1.378 . S
C80 C84 1.350 . S
C81 C84 1.463 . S
C81 C86 1.350 1_655 S
C81 N89 1.427 . S
C82 H73 0.930 . S
C82 C80 1.378 . S
C82 C83 1.367 . S
C83 C82 1.367 . S
C83 C85 1.433 1_655 S
C84 C80 1.350 . S
C84 C81 1.463 . S
C84 N88 1.427 1_655 S
C85 H75 0.929 . S
C85 C83 1.433 1_455 S
C85 N88 1.384 . S
C86 H77 0.929 . S
C86 C78 1.378 . S
C86 C81 1.350 1_455 S
C87 H74 0.929 . S
C87 C79 1.433 . S
C87 N89 1.384 . S
N88 C84 1.427 1_455 S
N88 C85 1.384 . S
N89 C81 1.427 . S
N89 C87 1.384 . S
H90 C96 0.930 . S
H91 C100 0.930 . S
H92 C105 0.929 . S
H93 C103 0.929 . S
H94 C98 0.929 . S
H95 C104 0.929 . S
C96 H90 0.930 . S
C96 C97 1.367 1_545 S
C96 C104 1.378 . S
C97 C96 1.367 1_565 S
C97 C105 1.433 . S
C98 H94 0.929 . S
C98 C100 1.378 . S
C98 C102 1.350 . S
C99 C102 1.463 . S
C99 C104 1.350 1_565 S
C99 N107 1.427 . S
C100 H91 0.930 . S
C100 C98 1.378 . S
C100 C101 1.367 . S
C101 C100 1.367 . S
C101 C103 1.433 1_565 S
C102 C98 1.350 . S
C102 C99 1.463 . S
C102 N106 1.427 1_565 S
C103 H93 0.929 . S
C103 C101 1.433 1_545 S
C103 N106 1.384 . S
C104 H95 0.929 . S
C104 C96 1.378 . S
C104 C99 1.350 1_545 S
C105 H92 0.929 . S
C105 C97 1.433 . S
C105 N107 1.384 . S
N106 C102 1.427 1_545 S
N106 C103 1.384 . S
N107 C99 1.427 . S
N107 C105 1.384 . S
H108 C114 0.930 . S
H109 C118 0.930 . S
H110 C123 0.929 . S
H111 C121 0.932 . S
H112 C116 0.929 . S
H113 C122 0.929 . S
C114 H108 0.930 . S
C114 C115 1.367 1_655 S
C114 C122 1.378 . S
C115 C114 1.367 1_455 S
C115 C123 1.433 . S
C116 H112 0.929 . S
C116 C118 1.378 . S
C116 C120 1.350 . S
C117 C120 1.463 . S
C117 C122 1.350 1_455 S
C117 N125 1.427 . S
C118 H109 0.930 . S
C118 C116 1.378 . S
C118 C119 1.367 . S
C119 C118 1.367 . S
C119 C121 1.430 1_455 S
C120 C116 1.350 . S
C120 C117 1.463 . S
C120 N124 1.427 1_455 S
C121 H111 0.932 . S
C121 C119 1.430 1_655 S
C121 N124 1.384 . S
C122 H113 0.929 . S
C122 C114 1.378 . S
C122 C117 1.350 1_655 S
C123 H110 0.929 . S
C123 C115 1.433 . S
C123 N125 1.384 . S
N124 C120 1.427 1_655 S
N124 C121 1.384 . S
N125 C117 1.427 . S
N125 C123 1.384 . S
H126 C132 0.930 . S
H127 C136 0.930 . S
H128 C141 0.929 . S
H129 C139 0.929 . S
H130 C134 0.929 . S
H131 C140 0.929 . S
C132 H126 0.930 . S
C132 C133 1.367 . S
C132 C140 1.378 . S
C133 C132 1.367 . S
C133 C141 1.433 1_565 S
C134 H130 0.929 . S
C134 C136 1.378 . S
C134 C138 1.350 1_545 S
C135 C138 1.463 . S
C135 C140 1.350 . S
C135 N143 1.427 1_565 S
C136 H127 0.930 . S
C136 C134 1.378 . S
C136 C137 1.367 1_545 S
C137 C136 1.367 1_565 S
C137 C139 1.433 . S
C138 C134 1.350 1_565 S
C138 C135 1.463 . S
C138 N142 1.427 . S
C139 H129 0.929 . S
C139 C137 1.433 . S
C139 N142 1.384 . S
C140 H131 0.929 . S
C140 C132 1.378 . S
C140 C135 1.350 . S
C141 H128 0.929 . S
C141 C133 1.433 1_545 S
C141 N143 1.384 . S
N142 C138 1.427 . S
N142 C139 1.384 . S
N143 C135 1.427 1_545 S
N143 C141 1.384 . S
H144 C150 0.930 . S
H145 C154 0.930 . S
H146 C159 0.929 . S
H147 C157 0.929 . S
H148 C152 0.929 . S
H149 C158 0.929 . S
C150 H144 0.930 . S
C150 C151 1.367 . S
C150 C158 1.378 . S
C151 C150 1.367 . S
C151 C159 1.433 . S
C152 H148 0.929 . S
C152 C154 1.378 . S
C152 C156 1.350 . S
C153 C156 1.463 . S
C153 C158 1.350 . S
C153 N161 1.427 . S
C154 H145 0.930 . S
C154 C152 1.378 . S
C154 C155 1.367 . S
C155 C154 1.367 . S
C155 C157 1.433 . S
C156 C152 1.350 . S
C156 C153 1.463 . S
C156 N160 1.427 . S
C157 H147 0.929 . S
C157 C155 1.433 . S
C157 N160 1.384 . S
C158 H149 0.929 . S
C158 C150 1.378 . S
C158 C153 1.350 . S
C159 H146 0.929 . S
C159 C151 1.433 . S
C159 N161 1.384 . S
N160 C156 1.427 . S
N160 C157 1.384 . S
N161 C153 1.427 . S
N161 C159 1.384 . S
H162 C168 0.930 . S
H163 C172 0.930 . S
H164 C177 0.929 . S
H165 C175 0.929 . S
H166 C170 0.929 . S
H167 C176 0.929 . S
C168 H162 0.930 . S
C168 C169 1.367 . S
C168 C176 1.378 . S
C169 C168 1.367 . S
C169 C177 1.433 1_545 S
C170 H166 0.929 . S
C170 C172 1.378 . S
C170 C174 1.350 1_565 S
C171 C174 1.463 . S
C171 C176 1.350 . S
C171 N179 1.427 1_545 S
C172 H163 0.930 . S
C172 C170 1.378 . S
C172 C173 1.367 1_565 S
C173 C172 1.367 1_545 S
C173 C175 1.433 . S
C174 C170 1.350 1_545 S
C174 C171 1.463 . S
C174 N178 1.427 . S
C175 H165 0.929 . S
C175 C173 1.433 . S
C175 N178 1.384 . S
C176 H167 0.929 . S
C176 C168 1.378 . S
C176 C171 1.350 . S
C177 H164 0.929 . S
C177 C169 1.433 1_565 S
C177 N179 1.384 . S
N178 C174 1.427 . S
N178 C175 1.384 . S
N179 C171 1.427 1_565 S
N179 C177 1.384 . S
H180 C186 0.930 . S
H181 C190 0.930 . S
H182 C195 0.929 . S
H183 C193 0.929 . S
H184 C188 0.929 . S
H185 C194 0.929 . S
C186 H180 0.930 . S
C186 C187 1.367 1_455 S
C186 C194 1.378 . S
C187 C186 1.367 1_655 S
C187 C195 1.433 . S
C188 H184 0.929 . S
C188 C190 1.378 . S
C188 C192 1.350 . S
C189 C192 1.463 . S
C189 C194 1.350 1_655 S
C189 N197 1.427 . S
C190 H181 0.930 . S
C190 C188 1.378 . S
C190 C191 1.367 . S
C191 C190 1.367 . S
C191 C193 1.433 . S
C192 C188 1.350 . S
C192 C189 1.463 . S
C192 N196 1.427 . S
C193 H183 0.929 . S
C193 C191 1.433 . S
C193 N196 1.384 . S
C194 H185 0.929 . S
C194 C186 1.378 . S
C194 C189 1.350 1_455 S
C195 H182 0.929 . S
C195 C187 1.433 . S
C195 N197 1.384 . S
N196 C192 1.427 . S
N196 C193 1.384 . S
N197 C189 1.427 . S
N197 C195 1.384 . S
C65 C35 1.496 . S
C61 C5 1.490 1_545 S
C83 C46 1.535 . S
C79 C23 1.585 1_655 S
C101 C34 1.495 . S
C97 C3 1.480 . S
C119 C47 1.530 . S
C115 C14 1.576 . S
C137 C49 1.556 . S
C133 C1 1.538 . S
C155 C33 1.465 . S
C151 C16 1.493 . S
C173 C48 1.556 . S
C169 C10 1.557 1_545 S
C187 C18 1.514 1_655 S
C191 C32 1.463 . S
