# Generated by pormake.
# Topology pth, (4,4)-cn, num edge types: 1
# Building blocks:
#     Node 0, Type 0, BuildingBlock: AZAVOO_clean_sbu_0, # of connection points: 4
#     Node 1, Type 0, BuildingBlock: AZAVOO_clean_sbu_0, # of connection points: 4
#     Node 2, Type 0, BuildingBlock: AZAVOO_clean_sbu_0, # of connection points: 4
#     Node 3, Type 1, BuildingBlock: MUDLON_clean_sbu_0, # of connection points: 4
#     Node 4, Type 1, BuildingBlock: MUDLON_clean_sbu_0, # of connection points: 4
#     Node 5, Type 1, BuildingBlock: MUDLON_clean_sbu_0, # of connection points: 4
#     Edge 6, Type (0, 1), None
#     Edge 7, Type (0, 1), None
#     Edge 8, Type (0, 1), None
#     Edge 9, Type (0, 1), None
#     Edge 10, Type (0, 1), None
#     Edge 11, Type (0, 1), None
#     Edge 12, Type (0, 1), None
#     Edge 13, Type (0, 1), None
#     Edge 14, Type (0, 1), None
#     Edge 15, Type (0, 1), None
#     Edge 16, Type (0, 1), None
#     Edge 17, Type (0, 1), None
# Relax obj value: 0.110
# Max RMSD: 0.235
# Mean RMSD: 0.137
data_MOF--net-pth--node1-AZAVOO_clean_sbu_0--node2-MUDLON_clean_sbu_0--edge1-none
_symmetry_space_group_name_H-M    P1
_symmetry_Int_Tables_number       1
_symmetry_cell_setting            triclinic
loop_
_symmetry_equiv_pos_as_xyz
'x, y, z'
_cell_length_a     10.049471
_cell_length_b     10.627502
_cell_length_c     28.081423
_cell_angle_alpha  92.425098
_cell_angle_beta   93.980856
_cell_angle_gamma 125.31607
loop_
_atom_site_label
_atom_site_type_symbol
_atom_site_fract_x
_atom_site_fract_y
_atom_site_fract_z
_atom_type_partial_charge
Mg0 Mg 0.28436 0.20781 0.09756 0.0
O1 O 0.0623 0.02509 0.04538 0.0
O2 O 0.9501 0.12595 0.00566 0.0
Mg3 Mg 0.11956 0.3877 0.03071 0.0
C4 C 0.953 1.01111 0.01504 0.0
C5 C 0.33855 1.01582 0.17394 0.0
O6 O 0.4617 0.14861 0.19661 0.0
O7 O 0.1189 0.21738 0.14734 0.0
O8 O 0.05002 0.35395 0.1078 0.0
O9 O 0.45055 0.26193 0.03949 0.0
O10 O 0.32657 0.37462 0.05331 0.0
C11 C 0.05103 0.2883 0.14476 0.0
C12 C 0.41695 0.35786 0.02755 0.0
O13 O 0.26058 1.01254 0.1357 0.0
Mg14 Mg 0.92964 0.01732 0.39881 0.0
O15 O 0.1577 0.08465 0.44841 0.0
O16 O 0.24868 0.29796 0.49715 0.0
Mg17 Mg 0.07073 0.36316 0.47883 0.0
C18 C 0.26049 0.19064 0.48157 0.0
C19 C 0.87272 0.70953 0.35251 0.0
O20 O 0.78088 0.64591 0.38731 0.0
O21 O 0.09787 0.21916 0.35648 0.0
O22 O 0.16448 0.42577 0.40453 0.0
O23 O 0.76135 0.87124 0.45228 0.0
O24 O 0.87374 0.12129 0.44966 0.0
C25 C 0.17056 0.36495 0.3652 0.0
C26 C 0.78228 0.99662 0.47009 0.0
O27 O 0.94807 0.85404 0.34932 0.0
Mg28 Mg 1.01394 0.97781 0.7214 0.0
O29 O 0.21254 0.18721 0.77433 0.0
O30 O 0.09384 0.27597 0.81532 0.0
Mg31 Mg 0.81878 0.11813 0.79011 0.0
C32 C 0.21996 0.2828 0.80569 0.0
C33 C 0.15024 0.89366 0.63936 0.0
O34 O 0.99172 0.79696 0.62616 0.0
O35 O 1.00046 0.1419 0.67467 0.0
O36 O 0.86632 0.212 0.71583 0.0
O37 O 0.96932 0.81614 0.7768 0.0
O38 O 0.84484 0.93219 0.76761 0.0
C39 C 0.93556 0.21508 0.67896 0.0
C40 C 0.86964 0.84533 0.7915 0.0
O41 O 0.20117 0.98467 0.67777 0.0
Mg42 Mg 0.15612 0.63915 0.26093 0.0
C43 C 0.23641 0.46157 0.32545 0.0
O44 O 0.24932 0.40334 0.28539 0.0
C45 C 0.26869 0.87043 0.19588 0.0
O46 O 0.12521 0.74826 0.17667 0.0
C47 C 1.01574 0.33381 0.18948 0.0
O48 O 0.973 0.24632 0.22503 0.0
O49 O 0.07462 0.47658 0.19715 0.0
O50 O 0.2302 0.57741 0.32509 0.0
O51 O 0.98463 0.6801 0.28567 0.0
C52 C 0.91326 0.62255 0.32259 0.0
O53 O 0.91257 0.50918 0.33973 0.0
O54 O 0.33118 0.86288 0.23573 0.0
Mg55 Mg 0.60565 0.1759 0.57752 0.0
C56 C 0.39103 0.18164 0.5039 0.0
O57 O 0.40187 0.07097 0.48716 0.0
C58 C 0.91323 0.28048 0.63653 0.0
O59 O 0.9513 0.25077 0.59582 0.0
C60 C 0.26648 0.92164 0.60519 0.0
O61 O 0.21671 0.89275 0.55908 0.0
O62 O 0.41888 1.0092 0.61963 0.0
O63 O 0.47996 0.26512 0.54247 0.0
O64 O 0.70079 0.11553 0.52073 0.0
C65 C 0.70273 0.99878 0.51159 0.0
O66 O 0.6309 0.88184 0.53784 0.0
O67 O 0.80455 0.30684 0.63532 0.0
Mg68 Mg 0.62831 0.61732 0.91044 0.0
C69 C 0.37794 0.39689 0.83429 0.0
O70 O 0.50114 0.38688 0.83057 0.0
C71 C 0.83928 0.85968 0.98693 0.0
O72 O 0.86596 0.7532 0.99121 0.0
C73 C 0.47184 0.4431 0.98525 0.0
O74 O 0.41506 0.52342 0.9734 0.0
O75 O 0.58117 0.45291 0.96193 0.0
O76 O 0.39385 0.49565 0.86597 0.0
O77 O 0.79854 0.68992 0.85742 0.0
C78 C 0.78734 0.78458 0.8343 0.0
O79 O 0.68913 0.82049 0.84724 0.0
O80 O 0.72899 0.83454 0.95458 0.0
loop_
_geom_bond_atom_site_label_1
_geom_bond_atom_site_label_2
_geom_bond_distance
_geom_bond_site_symmetry_2
_ccdc_geom_bond_type
Mg0 O1 2.028 1_445 S
Mg0 O7 1.986 . S
Mg0 O9 2.114 . S
Mg0 O10 2.251 . S
Mg0 O13 2.010 . S
O1 Mg0 2.028 1_665 S
O1 C4 1.250 . S
O2 Mg3 2.028 1_655 S
O2 C4 1.248 1_545 S
Mg3 O2 2.028 1_455 S
Mg3 O8 2.032 1_455 S
Mg3 O10 2.079 . S
C4 O1 1.250 . S
C4 O2 1.248 1_565 S
C5 O6 1.264 . S
C5 O13 1.249 1_565 S
O6 C5 1.264 . S
O7 Mg0 1.986 . S
O7 C11 1.246 . S
O8 Mg3 2.032 1_655 S
O8 C11 1.259 1_655 S
O9 Mg0 2.114 . S
O9 C12 1.252 . S
O10 Mg0 2.251 . S
O10 Mg3 2.079 . S
O10 C12 1.273 . S
C11 O7 1.246 . S
C11 O8 1.259 1_455 S
C12 O9 1.252 . S
C12 O10 1.273 . S
O13 Mg0 2.010 . S
O13 C5 1.249 1_545 S
Mg14 O15 2.028 1_655 S
Mg14 O21 1.986 1_655 S
Mg14 O23 2.114 1_545 S
Mg14 O24 2.251 . S
Mg14 O27 2.010 1_545 S
O15 Mg14 2.028 1_455 S
O15 C18 1.250 . S
O16 Mg17 2.028 . S
O16 C18 1.248 . S
Mg17 O16 2.028 . S
Mg17 O22 2.032 . S
Mg17 O24 2.079 1_455 S
C18 O15 1.250 . S
C18 O16 1.248 . S
C19 O20 1.264 . S
C19 O27 1.249 . S
O20 C19 1.264 . S
O21 Mg14 1.986 1_455 S
O21 C25 1.246 . S
O22 Mg17 2.032 . S
O22 C25 1.259 . S
O23 Mg14 2.114 1_565 S
O23 C26 1.252 1_565 S
O24 Mg14 2.251 . S
O24 Mg17 2.079 1_655 S
O24 C26 1.273 . S
C25 O21 1.246 . S
C25 O22 1.259 . S
C26 O23 1.252 1_545 S
C26 O24 1.273 . S
O27 Mg14 2.010 1_565 S
O27 C19 1.249 . S
Mg28 O29 2.028 . S
Mg28 O35 1.986 1_455 S
Mg28 O37 2.114 1_545 S
Mg28 O38 2.251 1_445 S
Mg28 O41 2.010 1_545 S
O29 Mg28 2.028 . S
O29 C32 1.250 . S
O30 Mg31 2.028 1_455 S
O30 C32 1.248 . S
Mg31 O30 2.028 1_655 S
Mg31 O36 2.032 . S
Mg31 O38 2.079 1_545 S
C32 O29 1.250 . S
C32 O30 1.248 . S
C33 O34 1.264 . S
C33 O41 1.249 . S
O34 C33 1.264 . S
O35 Mg28 1.986 1_655 S
O35 C39 1.246 . S
O36 Mg31 2.032 . S
O36 C39 1.259 . S
O37 Mg28 2.114 1_565 S
O37 C40 1.252 1_455 S
O38 Mg28 2.251 1_665 S
O38 Mg31 2.079 1_565 S
O38 C40 1.273 . S
C39 O35 1.246 . S
C39 O36 1.259 . S
C40 O37 1.252 1_655 S
C40 O38 1.273 . S
O41 Mg28 2.010 1_565 S
O41 C33 1.249 . S
Mg42 O49 2.141 . S
Mg42 O50 2.048 . S
Mg42 O51 2.048 . S
Mg42 O54 2.141 . S
C43 O44 1.313 1_455 S
C43 O50 1.195 . S
O44 C43 1.313 1_655 S
C45 O46 1.245 1_455 S
C45 O54 1.289 . S
O46 C45 1.245 1_655 S
C47 O48 1.245 1_455 S
C47 O49 1.289 . S
O48 C47 1.245 1_655 S
O49 Mg42 2.141 . S
O49 C47 1.289 . S
O50 Mg42 2.048 . S
O50 C43 1.195 . S
O51 Mg42 2.048 . S
O51 C52 1.195 . S
C52 O51 1.195 . S
C52 O53 1.313 1_455 S
O53 C52 1.313 1_655 S
O54 Mg42 2.141 . S
O54 C45 1.289 . S
Mg55 O62 2.141 . S
Mg55 O63 2.048 . S
Mg55 O64 2.048 . S
Mg55 O67 2.141 . S
C56 O57 1.313 1_545 S
C56 O63 1.195 . S
O57 C56 1.313 1_565 S
C58 O59 1.245 1_545 S
C58 O67 1.289 . S
O59 C58 1.245 1_565 S
C60 O61 1.245 1_545 S
C60 O62 1.289 . S
O61 C60 1.245 1_565 S
O62 Mg55 2.141 . S
O62 C60 1.289 . S
O63 Mg55 2.048 . S
O63 C56 1.195 . S
O64 Mg55 2.048 . S
O64 C65 1.195 . S
C65 O64 1.195 . S
C65 O66 1.313 1_545 S
O66 C65 1.313 1_565 S
O67 Mg55 2.141 . S
O67 C58 1.289 . S
Mg68 O75 2.141 . S
Mg68 O76 2.048 . S
Mg68 O77 2.048 . S
Mg68 O80 2.141 . S
C69 O70 1.313 . S
C69 O76 1.195 . S
O70 C69 1.313 . S
C71 O72 1.245 . S
C71 O80 1.289 . S
O72 C71 1.245 . S
C73 O74 1.245 . S
C73 O75 1.289 . S
O74 C73 1.245 . S
O75 Mg68 2.141 . S
O75 C73 1.289 . S
O76 Mg68 2.048 . S
O76 C69 1.195 . S
O77 Mg68 2.048 . S
O77 C78 1.195 . S
C78 O77 1.195 . S
C78 O79 1.313 . S
O79 C78 1.313 . S
O80 Mg68 2.141 . S
O80 C71 1.289 . S
C47 C11 1.495 . S
C26 C65 1.711 . S
C40 C78 1.491 . S
C5 C45 1.710 . S
C56 C18 1.828 . S
C32 C69 1.609 . S
C58 C39 1.474 . S
C4 C71 1.554 1_554 S
C52 C19 1.624 1_455 S
C60 C33 1.330 1_545 S
C73 C12 1.433 1_556 S
C25 C43 1.722 . S
