# Generated by pormake.
# Topology scu, (8,4)-cn, num edge types: 1
# Building blocks:
#     Node 0, Type 0, BuildingBlock: GIZVER_clean_sbu_0, # of connection points: 8
#     Node 1, Type 1, BuildingBlock: NAWXER_clean_sbu_0, # of connection points: 4
#     Node 2, Type 1, BuildingBlock: NAWXER_clean_sbu_0, # of connection points: 4
#     Edge 3, Type (0, 1), BuildingBlock: KIFKEQ_clean_linker_1, # of connection points: 2
#     Edge 4, Type (0, 1), BuildingBlock: KIFKEQ_clean_linker_1, # of connection points: 2
#     Edge 5, Type (0, 1), BuildingBlock: KIFKEQ_clean_linker_1, # of connection points: 2
#     Edge 6, Type (0, 1), BuildingBlock: KIFKEQ_clean_linker_1, # of connection points: 2
#     Edge 7, Type (0, 1), BuildingBlock: KIFKEQ_clean_linker_1, # of connection points: 2
#     Edge 8, Type (0, 1), BuildingBlock: KIFKEQ_clean_linker_1, # of connection points: 2
#     Edge 9, Type (0, 1), BuildingBlock: KIFKEQ_clean_linker_1, # of connection points: 2
#     Edge 10, Type (0, 1), BuildingBlock: KIFKEQ_clean_linker_1, # of connection points: 2
# Relax obj value: 0.017
# Max RMSD: 0.079
# Mean RMSD: 0.059
data_MOF--net-scu--node1-GIZVER_clean_sbu_0--node2-NAWXER_clean_sbu_0--edge1-KIFKEQ_clean_linker_1
_symmetry_space_group_name_H-M    P1
_symmetry_Int_Tables_number       1
_symmetry_cell_setting            triclinic
loop_
_symmetry_equiv_pos_as_xyz
'x, y, z'
_cell_length_a     23.874887
_cell_length_b     24.31157
_cell_length_c     21.985934
_cell_angle_alpha  99.038908
_cell_angle_beta   81.566227
_cell_angle_gamma 114.32523
loop_
_atom_site_label
_atom_site_type_symbol
_atom_site_fract_x
_atom_site_fract_y
_atom_site_fract_z
_atom_type_partial_charge
Co0 Co 0.03361 0.96201 0.14663 0.0
Co1 Co 0.1331 0.048 0.11319 0.0
Co2 Co 0.02279 0.03746 0.03633 0.0
O3 O 0.0684 0.99787 0.07034 0.0
H4 H 0.0812 0.97146 0.03929 0.0
O5 O 0.97338 0.07214 1.00193 0.0
Co6 Co 0.9864 0.09514 0.91973 0.0
Co7 Co 0.90154 1.00559 0.97674 0.0
H8 H 0.96221 0.10011 1.03231 0.0
O9 O 0.19679 0.02518 0.11337 0.0
O10 O 0.1136 1.00808 0.18359 0.0
O11 O 0.13954 0.12925 0.13384 0.0
O12 O 0.05358 0.11669 0.09358 0.0
O13 O 0.09361 0.07193 0.97406 0.0
O14 O 0.99402 0.12069 0.84605 0.0
O15 O 0.94273 0.14261 0.9344 0.0
O16 O 0.03801 0.05119 0.89389 0.0
O17 O 0.99663 0.96064 0.97851 0.0
O18 O 0.89692 0.92293 0.96789 0.0
O19 O 0.90992 0.02328 0.8965 0.0
O20 O 0.83109 1.01635 0.96983 0.0
C21 C 0.02077 0.88419 0.18238 0.0
C22 C 0.95809 0.02075 0.15563 0.0
C23 C 0.09926 0.1484 0.12604 0.0
C24 C 0.16609 1.00336 0.16419 0.0
C25 C 0.95988 0.14826 0.87568 0.0
C26 C 0.08944 0.06484 0.9158 0.0
C27 C 0.94806 0.91756 0.95991 0.0
C28 C 0.85399 0.02044 0.91255 0.0
O29 O 1.00181 0.9243 0.21329 0.0
O30 O 0.05165 0.89473 0.12809 0.0
O31 O 0.95076 1.00456 0.09838 0.0
O32 O 0.00678 0.02491 0.17644 0.0
C33 C 0.00756 0.60507 0.62565 0.0
C34 C 0.04435 0.45883 0.46038 0.0
O35 O 0.05965 0.60254 0.60704 0.0
Zn36 Zn 0.03054 0.53363 0.54394 0.0
O37 O 0.95907 0.56693 0.60077 0.0
Zn38 Zn 0.93268 0.4915 0.53136 0.0
O39 O 0.8798 0.42356 0.57937 0.0
O40 O 0.97721 0.46282 0.60023 0.0
O41 O 0.98804 0.45241 0.47233 0.0
O42 O 0.08577 0.50069 0.49121 0.0
O43 O 1.00265 0.5697 0.47729 0.0
O44 O 0.90231 0.52162 0.47091 0.0
C45 C 0.92157 0.42454 0.61008 0.0
C46 C 0.95407 0.56193 0.45285 0.0
C47 C 0.56321 0.98871 0.60744 0.0
C48 C 0.42534 0.96034 0.45003 0.0
O49 O 0.525 0.93801 0.58427 0.0
Zn50 Zn 0.49197 0.97094 0.53014 0.0
O51 O 0.56727 0.0383 0.59016 0.0
Zn52 Zn 0.52805 0.06803 0.52694 0.0
O53 O 0.48716 0.11452 0.58151 0.0
O54 O 0.44637 1.01706 0.59464 0.0
O55 O 0.46072 1.01568 0.46486 0.0
O56 O 0.42679 0.91843 0.47705 0.0
O57 O 0.57145 1.00758 0.46698 0.0
O58 O 0.59992 0.10669 0.46998 0.0
C59 C 0.44783 0.07063 0.60983 0.0
C60 C 0.60847 0.0587 0.44837 0.0
H61 H 0.0153 0.20029 0.13509 0.0
H62 H 0.18573 0.22484 0.20364 0.0
H63 H 0.00818 0.28226 0.21092 0.0
H64 H 0.17728 0.30502 0.28068 0.0
H65 H 0.15735 0.47143 0.39756 0.0
H66 H 0.17672 0.40515 0.30812 0.0
H67 H 0.98276 0.28715 0.32015 0.0
H68 H 0.96352 0.35313 0.40726 0.0
C69 C 0.05175 0.22368 0.16557 0.0
C70 C 0.10059 0.20523 0.16364 0.0
C71 C 0.04738 0.27036 0.20954 0.0
C72 C 0.09148 0.2994 0.25289 0.0
C73 C 0.14256 0.28385 0.24808 0.0
C74 C 0.14715 0.23745 0.20392 0.0
C75 C 0.11912 0.43117 0.38103 0.0
C76 C 0.05894 0.41778 0.40935 0.0
C77 C 0.13009 0.39328 0.32976 0.0
C78 C 0.08108 0.34132 0.30614 0.0
C79 C 0.02134 0.32764 0.33563 0.0
C80 C 0.01044 0.36533 0.38624 0.0
H81 H 0.86152 0.04177 0.12563 0.0
H82 H 0.94828 0.03376 0.28146 0.0
H83 H 0.78024 0.06013 0.19692 0.0
H84 H 0.867 0.05136 0.35192 0.0
H85 H 0.66084 0.9773 0.43124 0.0
H86 H 0.74871 0.97663 0.36033 0.0
H87 H 0.76676 0.14196 0.29489 0.0
H88 H 0.67819 0.1435 0.3676 0.0
C89 C 0.86347 0.04431 0.17496 0.0
C90 C 0.91086 0.03555 0.19794 0.0
C91 C 0.81736 0.05537 0.2156 0.0
C92 C 0.81752 0.05698 0.27968 0.0
C93 C 0.86588 0.05013 0.30261 0.0
C94 C 0.91229 0.03997 0.26223 0.0
C95 C 0.68333 1.01369 0.40188 0.0
C96 C 0.6625 0.06045 0.40489 0.0
C97 C 0.73389 1.01339 0.36155 0.0
C98 C 0.76447 0.05932 0.32249 0.0
C99 C 0.74369 0.10604 0.3247 0.0
C100 C 0.6934 0.10703 0.36628 0.0
H101 H 0.92904 0.83593 0.2708 0.0
H102 H 0.08084 0.80613 0.15956 0.0
H103 H 0.90981 0.75095 0.32711 0.0
H104 H 0.06089 0.71938 0.21613 0.0
H105 H 0.06053 0.63902 0.39607 0.0
H106 H 0.07314 0.70811 0.32174 0.0
H107 H 0.87509 0.64137 0.3226 0.0
H108 H 0.86225 0.57222 0.39841 0.0
C109 C 0.958 0.81065 0.25783 0.0
C110 C 0.00686 0.82811 0.21095 0.0
C111 C 0.94644 0.76136 0.28984 0.0
C112 C 0.98365 0.72814 0.27627 0.0
C113 C 0.03156 0.74433 0.22801 0.0
C114 C 0.04283 0.79369 0.19534 0.0
C115 C 0.01944 0.63859 0.38029 0.0
C116 C 0.96022 0.60046 0.40398 0.0
C117 C 0.02684 0.67791 0.33696 0.0
C118 C 0.97525 0.68049 0.31612 0.0
C119 C 0.91588 0.64095 0.33818 0.0
C120 C 0.90844 0.60122 0.38151 0.0
H121 H 0.26274 0.97041 0.1281 0.0
H122 H 0.13244 0.97685 0.28491 0.0
H123 H 0.31911 0.9421 0.19227 0.0
H124 H 0.19015 0.94941 0.34981 0.0
H125 H 0.30433 0.87894 0.44527 0.0
H126 H 0.23291 0.87353 0.37189 0.0
H127 H 0.38284 1.01037 0.27427 0.0
H128 H 0.4528 1.01579 0.34676 0.0
C129 C 0.24575 0.96528 0.17623 0.0
C130 C 0.19412 0.97762 0.20185 0.0
C131 C 0.27803 0.94885 0.21293 0.0
C132 C 0.25976 0.94465 0.27629 0.0
C133 C 0.20529 0.95225 0.30106 0.0
C134 C 0.17259 0.96848 0.26405 0.0
C135 C 0.32188 0.90655 0.40708 0.0
C136 C 0.38391 0.94773 0.40141 0.0
C137 C 0.28108 0.9039 0.36558 0.0
C138 C 0.30232 0.94143 0.31727 0.0
C139 C 0.3651 0.98023 0.31034 0.0
C140 C 0.4052 0.98357 0.35205 0.0
H141 H 0.05556 0.9069 0.91268 0.0
H142 H 0.85761 0.81134 0.91319 0.0
H143 H 0.07007 0.83092 0.83474 0.0
H144 H 0.87217 0.73262 0.83692 0.0
H145 H 0.91666 0.64715 0.64723 0.0
H146 H 0.9015 0.71808 0.73195 0.0
H147 H 0.06585 0.73344 0.80659 0.0
H148 H 0.08254 0.66447 0.71929 0.0
C149 C 0.01487 0.86879 0.89724 0.0
C150 C 0.95522 0.86558 0.91913 0.0
C151 C 0.02335 0.82473 0.85245 0.0
C152 C 0.97245 0.77546 0.82872 0.0
C153 C 0.91264 0.77062 0.85284 0.0
C154 C 0.90412 0.81541 0.89714 0.0
C155 C 0.94975 0.66589 0.68163 0.0
C156 C 1.00098 0.65041 0.67646 0.0
C157 C 0.94064 0.70615 0.73081 0.0
C158 C 0.98195 0.73138 0.77695 0.0
C159 C 0.03336 0.71576 0.77169 0.0
C160 C 0.04306 0.67614 0.72168 0.0
H161 H 0.10667 0.07729 0.79206 0.0
H162 H 0.19857 0.06701 0.94271 0.0
H163 H 0.1988 0.08731 0.72154 0.0
H164 H 0.29032 0.07692 0.87208 0.0
H165 H 0.39434 1.00301 0.70527 0.0
H166 H 0.31104 1.00761 0.78139 0.0
H167 H 0.31343 0.16055 0.70266 0.0
H168 H 0.39799 0.15626 0.62599 0.0
C169 C 0.14646 0.0772 0.81014 0.0
C170 C 0.14512 0.07091 0.87291 0.0
C171 C 0.19938 0.0836 0.76988 0.0
C172 C 0.25169 0.08309 0.79143 0.0
C173 C 0.25053 0.07727 0.85423 0.0
C174 C 0.19797 0.0716 0.89461 0.0
C175 C 0.37767 0.03815 0.70456 0.0
C176 C 0.40246 0.07919 0.6596 0.0
C177 C 0.33016 0.04092 0.74838 0.0
C178 C 0.30568 0.08429 0.7478 0.0
C179 C 0.33133 0.12643 0.70379 0.0
C180 C 0.37987 0.1243 0.66035 0.0
H181 H 0.9495 0.13482 0.75205 0.0
H182 H 0.92258 0.24055 0.92213 0.0
H183 H 0.92403 0.19757 0.69369 0.0
H184 H 0.89765 0.30406 0.86333 0.0
H185 H 0.97233 0.44988 0.71832 0.0
H186 H 0.96732 0.37875 0.78763 0.0
H187 H 0.83947 0.23138 0.67564 0.0
H188 H 0.84386 0.30352 0.6062 0.0
C189 C 0.93773 0.17129 0.77703 0.0
C190 C 0.9391 0.18346 0.84162 0.0
C191 C 0.92241 0.20678 0.7436 0.0
C192 C 0.90898 0.25588 0.77385 0.0
C193 C 0.90808 0.26667 0.83874 0.0
C194 C 0.92234 0.23038 0.87238 0.0
C195 C 0.94198 0.40249 0.70927 0.0
C196 C 0.90858 0.38215 0.65682 0.0
C197 C 0.93888 0.36178 0.74919 0.0
C198 C 0.90319 0.29943 0.73704 0.0
C199 C 0.86755 0.27923 0.686 0.0
C200 C 0.86969 0.32042 0.64655 0.0
H201 H 0.75439 0.05015 0.93243 0.0
H202 H 0.86531 0.98891 0.78749 0.0
H203 H 0.68471 0.04199 0.85757 0.0
H204 H 0.79447 0.97986 0.71243 0.0
H205 H 0.60044 0.90068 0.62772 0.0
H206 H 0.67484 0.9107 0.69935 0.0
H207 H 0.69429 0.09478 0.76025 0.0
H208 H 0.62104 0.0853 0.68886 0.0
C209 C 0.76396 0.03508 0.88451 0.0
C210 C 0.81508 1.01983 0.86582 0.0
C211 C 0.72414 0.03055 0.84171 0.0
C212 C 0.734 1.00977 0.77948 0.0
C213 C 0.78558 0.99532 0.76038 0.0
C214 C 0.82624 1.00095 0.80314 0.0
C215 C 0.62038 0.94305 0.65672 0.0
C216 C 0.60478 0.99209 0.65285 0.0
C217 C 0.6633 0.94897 0.69713 0.0
C218 C 0.69029 1.00359 0.73502 0.0
C219 C 0.67399 0.05216 0.73167 0.0
C220 C 0.63207 0.04664 0.69075 0.0
loop_
_geom_bond_atom_site_label_1
_geom_bond_atom_site_label_2
_geom_bond_distance
_geom_bond_site_symmetry_2
_ccdc_geom_bond_type
Co0 O3 2.042 . S
Co0 O10 2.264 1_565 S
Co0 O29 2.286 1_455 S
Co0 O30 2.069 . S
Co0 O32 2.015 1_455 S
Co1 O3 2.122 1_545 S
Co1 O9 2.073 . S
Co1 O10 2.327 . S
Co1 O11 1.976 . S
Co2 O3 2.088 1_545 S
Co2 O5 2.086 1_454 S
Co2 O12 2.116 . S
Co2 O13 2.143 1_554 S
Co2 O17 2.107 1_444 S
Co2 O31 2.144 1_445 S
O3 Co0 2.042 . S
O3 Co1 2.122 1_565 S
O3 Co2 2.088 1_565 S
O3 H4 0.980 . S
H4 O3 0.980 . S
O5 Co2 2.086 1_656 S
O5 Co6 2.046 . S
O5 Co7 2.122 1_545 S
O5 H8 0.980 . S
Co6 O5 2.046 . S
Co6 O14 2.287 1_655 S
Co6 O15 2.081 . S
Co6 O16 2.000 1_655 S
Co6 O19 2.275 1_545 S
Co7 O5 2.122 1_565 S
Co7 O18 1.976 . S
Co7 O19 2.327 . S
Co7 O20 2.073 . S
H8 O5 0.980 . S
O9 Co1 2.073 . S
O9 C24 1.245 1_545 S
O10 Co0 2.264 1_545 S
O10 Co1 2.327 . S
O10 C24 1.257 1_545 S
O11 Co1 1.976 . S
O11 C23 1.251 . S
O12 Co2 2.116 . S
O12 C23 1.274 . S
O13 Co2 2.143 1_556 S
O13 C26 1.246 . S
O14 Co6 2.287 1_455 S
O14 C25 1.259 1_455 S
O15 Co6 2.081 . S
O15 C25 1.289 . S
O16 Co6 2.000 1_455 S
O16 C26 1.257 . S
O17 Co2 2.107 1_666 S
O17 C27 1.274 . S
O18 Co7 1.976 . S
O18 C27 1.251 . S
O19 Co6 2.275 1_565 S
O19 Co7 2.327 . S
O19 C28 1.257 1_565 S
O20 Co7 2.073 . S
O20 C28 1.245 1_565 S
C21 O29 1.259 1_455 S
C21 O30 1.289 . S
C22 O31 1.246 . S
C22 O32 1.257 . S
C23 O11 1.251 . S
C23 O12 1.274 . S
C24 O9 1.245 1_565 S
C24 O10 1.257 1_565 S
C25 O14 1.259 1_655 S
C25 O15 1.289 . S
C26 O13 1.246 . S
C26 O16 1.257 . S
C27 O17 1.274 . S
C27 O18 1.251 . S
C28 O19 1.257 1_545 S
C28 O20 1.245 1_545 S
O29 Co0 2.286 1_655 S
O29 C21 1.259 1_655 S
O30 Co0 2.069 . S
O30 C21 1.289 . S
O31 Co2 2.144 1_665 S
O31 C22 1.246 . S
O32 Co0 2.015 1_655 S
O32 C22 1.257 . S
C33 O35 1.253 . S
C33 O37 1.254 1_455 S
C34 O41 1.246 . S
C34 O42 1.259 1_655 S
O35 C33 1.253 . S
O35 Zn36 2.028 . S
Zn36 O35 2.028 . S
Zn36 O40 2.035 . S
Zn36 O42 2.035 . S
Zn36 O43 2.028 . S
O37 C33 1.254 1_655 S
O37 Zn38 2.035 . S
Zn38 O37 2.035 . S
Zn38 O39 2.028 . S
Zn38 O41 2.028 . S
Zn38 O44 2.035 . S
O39 Zn38 2.028 . S
O39 C45 1.246 . S
O40 Zn36 2.035 . S
O40 C45 1.259 1_455 S
O41 C34 1.246 . S
O41 Zn38 2.028 . S
O42 C34 1.259 1_455 S
O42 Zn36 2.035 . S
O43 Zn36 2.028 . S
O43 C46 1.253 . S
O44 Zn38 2.035 . S
O44 C46 1.254 1_655 S
C45 O39 1.246 . S
C45 O40 1.259 1_655 S
C46 O43 1.253 . S
C46 O44 1.254 1_455 S
C47 O49 1.247 1_545 S
C47 O51 1.257 . S
C48 O55 1.253 . S
C48 O56 1.248 1_545 S
O49 C47 1.247 1_565 S
O49 Zn50 2.028 . S
Zn50 O49 2.028 . S
Zn50 O54 2.035 . S
Zn50 O56 2.035 . S
Zn50 O57 2.028 . S
O51 C47 1.257 . S
O51 Zn52 2.035 . S
Zn52 O51 2.035 . S
Zn52 O53 2.028 . S
Zn52 O55 2.028 . S
Zn52 O58 2.035 . S
O53 Zn52 2.028 . S
O53 C59 1.254 . S
O54 Zn50 2.035 . S
O54 C59 1.249 1_565 S
O55 C48 1.253 . S
O55 Zn52 2.028 . S
O56 C48 1.248 1_565 S
O56 Zn50 2.035 . S
O57 Zn50 2.028 . S
O57 C60 1.247 1_565 S
O58 Zn52 2.035 . S
O58 C60 1.257 . S
C59 O53 1.254 . S
C59 O54 1.249 1_545 S
C60 O57 1.247 1_545 S
C60 O58 1.257 . S
H61 C69 0.950 . S
H62 C74 0.950 . S
H63 C71 0.950 . S
H64 C73 0.950 . S
H65 C75 0.948 . S
H66 C77 0.946 . S
H67 C79 0.950 . S
H68 C80 0.950 . S
C69 H61 0.950 . S
C69 C70 1.386 . S
C69 C71 1.391 . S
C70 C69 1.386 . S
C70 C74 1.393 1_455 S
C71 H63 0.950 . S
C71 C69 1.391 . S
C71 C72 1.400 . S
C72 C71 1.400 . S
C72 C73 1.398 1_455 S
C72 C78 1.491 . S
C73 H64 0.950 . S
C73 C72 1.398 1_655 S
C73 C74 1.391 . S
C74 H62 0.950 . S
C74 C70 1.393 1_655 S
C74 C73 1.391 . S
C75 H65 0.948 . S
C75 C76 1.389 1_655 S
C75 C77 1.392 . S
C76 C75 1.389 1_455 S
C76 C80 1.393 . S
C77 H66 0.946 . S
C77 C75 1.392 . S
C77 C78 1.402 1_655 S
C78 C72 1.491 . S
C78 C77 1.402 1_455 S
C78 C79 1.398 . S
C79 H67 0.950 . S
C79 C78 1.398 . S
C79 C80 1.391 . S
C80 H68 0.950 . S
C80 C76 1.393 . S
C80 C79 1.391 . S
H81 C89 0.950 . S
H82 C94 0.950 . S
H83 C91 0.950 . S
H84 C93 0.950 . S
H85 C95 0.950 . S
H86 C97 0.950 . S
H87 C99 0.950 . S
H88 C100 0.950 . S
C89 H81 0.950 . S
C89 C90 1.386 1_545 S
C89 C91 1.391 . S
C90 C89 1.386 1_565 S
C90 C94 1.393 . S
C91 H83 0.950 . S
C91 C89 1.391 . S
C91 C92 1.400 1_545 S
C92 C91 1.400 1_565 S
C92 C93 1.398 . S
C92 C98 1.491 . S
C93 H84 0.950 . S
C93 C92 1.398 . S
C93 C94 1.391 . S
C94 H82 0.950 . S
C94 C90 1.393 . S
C94 C93 1.391 . S
C95 H85 0.950 . S
C95 C96 1.396 . S
C95 C97 1.391 . S
C96 C95 1.396 . S
C96 C100 1.385 1_565 S
C97 H86 0.950 . S
C97 C95 1.391 . S
C97 C98 1.400 . S
C98 C92 1.491 . S
C98 C97 1.400 . S
C98 C99 1.398 1_565 S
C99 H87 0.950 . S
C99 C98 1.398 1_545 S
C99 C100 1.391 . S
C100 H88 0.950 . S
C100 C96 1.385 1_545 S
C100 C99 1.391 . S
H101 C109 0.950 . S
H102 C114 0.950 . S
H103 C111 0.950 . S
H104 C113 0.950 . S
H105 C115 0.950 . S
H106 C117 0.950 . S
H107 C119 0.950 . S
H108 C120 0.950 . S
C109 H101 0.950 . S
C109 C110 1.386 1_655 S
C109 C111 1.391 . S
C110 C109 1.386 1_455 S
C110 C114 1.393 . S
C111 H103 0.950 . S
C111 C109 1.391 . S
C111 C112 1.400 1_655 S
C112 C111 1.400 1_455 S
C112 C113 1.398 . S
C112 C118 1.491 . S
C113 H104 0.950 . S
C113 C112 1.398 . S
C113 C114 1.391 . S
C114 H102 0.950 . S
C114 C110 1.393 . S
C114 C113 1.391 . S
C115 H105 0.950 . S
C115 C116 1.386 . S
C115 C117 1.391 . S
C116 C115 1.386 . S
C116 C120 1.393 1_455 S
C117 H106 0.950 . S
C117 C115 1.391 . S
C117 C118 1.400 . S
C118 C112 1.491 . S
C118 C117 1.400 . S
C118 C119 1.398 1_455 S
C119 H107 0.950 . S
C119 C118 1.398 1_655 S
C119 C120 1.391 . S
C120 H108 0.950 . S
C120 C116 1.393 1_655 S
C120 C119 1.391 . S
H121 C129 0.950 . S
H122 C134 0.950 . S
H123 C131 0.950 . S
H124 C133 0.950 . S
H125 C135 0.950 . S
H126 C137 0.950 . S
H127 C139 0.950 . S
H128 C140 0.950 . S
C129 H121 0.950 . S
C129 C130 1.386 1_545 S
C129 C131 1.391 . S
C130 C129 1.386 1_565 S
C130 C134 1.393 . S
C131 H123 0.950 . S
C131 C129 1.391 . S
C131 C132 1.400 1_545 S
C132 C131 1.400 1_565 S
C132 C133 1.398 . S
C132 C138 1.491 . S
C133 H124 0.950 . S
C133 C132 1.398 . S
C133 C134 1.391 . S
C134 H122 0.950 . S
C134 C130 1.393 . S
C134 C133 1.391 . S
C135 H125 0.950 . S
C135 C136 1.386 . S
C135 C137 1.391 . S
C136 C135 1.386 . S
C136 C140 1.393 1_565 S
C137 H126 0.950 . S
C137 C135 1.391 . S
C137 C138 1.400 . S
C138 C132 1.491 . S
C138 C137 1.400 . S
C138 C139 1.398 1_565 S
C139 H127 0.950 . S
C139 C138 1.398 1_545 S
C139 C140 1.391 . S
C140 H128 0.950 . S
C140 C136 1.393 1_545 S
C140 C139 1.391 . S
H141 C149 0.950 . S
H142 C154 0.950 . S
H143 C151 0.950 . S
H144 C153 0.950 . S
H145 C155 0.950 . S
H146 C157 0.950 . S
H147 C159 0.950 . S
H148 C160 0.950 . S
C149 H141 0.950 . S
C149 C150 1.386 1_455 S
C149 C151 1.391 . S
C150 C149 1.386 1_655 S
C150 C154 1.393 . S
C151 H143 0.950 . S
C151 C149 1.391 . S
C151 C152 1.400 1_455 S
C152 C151 1.400 1_655 S
C152 C153 1.398 . S
C152 C158 1.491 . S
C153 H144 0.950 . S
C153 C152 1.398 . S
C153 C154 1.391 . S
C154 H142 0.950 . S
C154 C150 1.393 . S
C154 C153 1.391 . S
C155 H145 0.950 . S
C155 C156 1.381 1_655 S
C155 C157 1.391 . S
C156 C155 1.381 1_455 S
C156 C160 1.397 . S
C157 H146 0.950 . S
C157 C155 1.391 . S
C157 C158 1.400 . S
C158 C152 1.491 . S
C158 C157 1.400 . S
C158 C159 1.398 1_655 S
C159 H147 0.950 . S
C159 C158 1.398 1_455 S
C159 C160 1.391 . S
C160 H148 0.950 . S
C160 C156 1.397 . S
C160 C159 1.391 . S
H161 C169 0.950 . S
H162 C174 0.950 . S
H163 C171 0.950 . S
H164 C173 0.950 . S
H165 C175 0.950 . S
H166 C177 0.950 . S
H167 C179 0.950 . S
H168 C180 0.950 . S
C169 H161 0.950 . S
C169 C170 1.386 . S
C169 C171 1.391 . S
C170 C169 1.386 . S
C170 C174 1.393 1_545 S
C171 H163 0.950 . S
C171 C169 1.391 . S
C171 C172 1.400 . S
C172 C171 1.400 . S
C172 C173 1.398 1_545 S
C172 C178 1.491 . S
C173 H164 0.950 . S
C173 C172 1.398 1_565 S
C173 C174 1.391 . S
C174 H162 0.950 . S
C174 C170 1.393 1_565 S
C174 C173 1.391 . S
C175 H165 0.950 . S
C175 C176 1.395 . S
C175 C177 1.391 . S
C176 C175 1.395 . S
C176 C180 1.380 1_565 S
C177 H166 0.950 . S
C177 C175 1.391 . S
C177 C178 1.400 1_565 S
C178 C172 1.491 . S
C178 C177 1.400 1_545 S
C178 C179 1.398 . S
C179 H167 0.950 . S
C179 C178 1.398 . S
C179 C180 1.391 . S
C180 H168 0.950 . S
C180 C176 1.380 1_545 S
C180 C179 1.391 . S
H181 C189 0.950 . S
H182 C194 0.950 . S
H183 C191 0.950 . S
H184 C193 0.950 . S
H185 C195 0.950 . S
H186 C197 0.950 . S
H187 C199 0.950 . S
H188 C200 0.950 . S
C189 H181 0.950 . S
C189 C190 1.386 . S
C189 C191 1.391 . S
C190 C189 1.386 . S
C190 C194 1.393 1_655 S
C191 H183 0.950 . S
C191 C189 1.391 . S
C191 C192 1.400 . S
C192 C191 1.400 . S
C192 C193 1.398 1_655 S
C192 C198 1.491 . S
C193 H184 0.950 . S
C193 C192 1.398 1_455 S
C193 C194 1.391 . S
C194 H182 0.950 . S
C194 C190 1.393 1_455 S
C194 C193 1.391 . S
C195 H185 0.950 . S
C195 C196 1.390 . S
C195 C197 1.391 . S
C196 C195 1.390 . S
C196 C200 1.394 1_455 S
C197 H186 0.950 . S
C197 C195 1.391 . S
C197 C198 1.400 1_455 S
C198 C192 1.491 . S
C198 C197 1.400 1_655 S
C198 C199 1.398 . S
C199 H187 0.950 . S
C199 C198 1.398 . S
C199 C200 1.391 . S
C200 H188 0.950 . S
C200 C196 1.394 1_655 S
C200 C199 1.391 . S
H201 C209 0.950 . S
H202 C214 0.950 . S
H203 C211 0.950 . S
H204 C213 0.950 . S
H205 C215 0.950 . S
H206 C217 0.950 . S
H207 C219 0.950 . S
H208 C220 0.950 . S
C209 H201 0.950 . S
C209 C210 1.386 . S
C209 C211 1.391 . S
C210 C209 1.386 . S
C210 C214 1.393 1_545 S
C211 H203 0.950 . S
C211 C209 1.391 . S
C211 C212 1.400 . S
C212 C211 1.400 . S
C212 C213 1.398 1_545 S
C212 C218 1.491 . S
C213 H204 0.950 . S
C213 C212 1.398 1_565 S
C213 C214 1.391 . S
C214 H202 0.950 . S
C214 C210 1.393 1_565 S
C214 C213 1.391 . S
C215 H205 0.950 . S
C215 C216 1.379 1_565 S
C215 C217 1.391 . S
C216 C215 1.379 1_545 S
C216 C220 1.396 . S
C217 H206 0.950 . S
C217 C215 1.391 . S
C217 C218 1.400 1_565 S
C218 C212 1.491 . S
C218 C217 1.400 1_545 S
C218 C219 1.398 . S
C219 H207 0.950 . S
C219 C218 1.398 . S
C219 C220 1.391 . S
C220 H208 0.950 . S
C220 C216 1.396 . S
C220 C219 1.391 . S
C70 C23 1.325 . S
C76 C34 1.388 1_455 S
C90 C22 1.437 . S
C96 C60 1.473 1_565 S
C110 C21 1.720 . S
C116 C46 1.730 . S
C130 C24 1.476 . S
C136 C48 1.541 1_565 S
C150 C27 1.314 . S
C156 C33 1.391 . S
C170 C26 1.424 . S
C176 C59 1.480 1_565 S
C196 C45 1.727 1_455 S
C190 C25 1.722 . S
C210 C28 1.490 . S
C216 C47 1.544 . S
