# Generated by pormake.
# Topology bcu-b, (8,8)-cn, num edge types: 1
# Building blocks:
#     Node 0, Type 0, BuildingBlock: VETTIZ_charged_sbu_0, # of connection points: 8
#     Node 1, Type 1, BuildingBlock: VETTIZ_charged_sbu_0, # of connection points: 8
#     Edge 2, Type (0, 1), BuildingBlock: AJUNOK_clean_linker_0, # of connection points: 2
#     Edge 3, Type (0, 1), BuildingBlock: AJUNOK_clean_linker_0, # of connection points: 2
#     Edge 4, Type (0, 1), BuildingBlock: AJUNOK_clean_linker_0, # of connection points: 2
#     Edge 5, Type (0, 1), BuildingBlock: AJUNOK_clean_linker_0, # of connection points: 2
#     Edge 6, Type (0, 1), BuildingBlock: AJUNOK_clean_linker_0, # of connection points: 2
#     Edge 7, Type (0, 1), BuildingBlock: AJUNOK_clean_linker_0, # of connection points: 2
#     Edge 8, Type (0, 1), BuildingBlock: AJUNOK_clean_linker_0, # of connection points: 2
#     Edge 9, Type (0, 1), BuildingBlock: AJUNOK_clean_linker_0, # of connection points: 2
# Relax obj value: 0.000
# Max RMSD: 0.009
# Mean RMSD: 0.009
data_MOF--net-bcu-b--node1-VETTIZ_charged_sbu_0--node2-VETTIZ_charged_sbu_0--edge1-AJUNOK_clean_linker_0
_symmetry_space_group_name_H-M    P1
_symmetry_Int_Tables_number       1
_symmetry_cell_setting            triclinic
loop_
_symmetry_equiv_pos_as_xyz
'x, y, z'
_cell_length_a     15.829504
_cell_length_b     13.362364
_cell_length_c     15.466949
_cell_angle_alpha  87.164003
_cell_angle_beta   88.375761
_cell_angle_gamma 92.209672
loop_
_atom_site_label
_atom_site_type_symbol
_atom_site_fract_x
_atom_site_fract_y
_atom_site_fract_z
_atom_type_partial_charge
Fe0 Fe 0.03857 0.8542 0.00688 0.0
O1 O 0.04961 1.00283 0.00462 0.0
Fe2 Fe 0.98238 1.08285 0.90892 0.0
Fe3 Fe 0.0174 1.08185 0.10668 0.0
O4 O 0.04632 1.00189 0.99593 0.0
O5 O 0.94998 0.16131 0.0112 0.0
O6 O 0.95336 0.16237 0.01972 0.0
Fe7 Fe 0.96015 0.30975 0.00979 0.0
C8 C 0.90661 0.89695 0.14843 0.0
O9 O 0.13737 0.86871 0.08872 0.0
O10 O 0.09305 0.98585 0.18291 0.0
O11 O 0.03833 0.32589 0.89952 0.0
O12 O 0.08804 0.17412 0.88291 0.0
O13 O 0.03087 0.99016 0.81353 0.0
O14 O 0.10535 0.87105 0.89128 0.0
O15 O 0.12364 0.17684 0.08977 0.0
O16 O 0.06197 0.32291 0.08579 0.0
C17 C 0.08475 0.91844 0.82008 0.0
O18 O 0.86166 0.2953 0.92959 0.0
O19 O 0.90607 0.17999 0.83351 0.0
O20 O 0.9601 0.83901 0.11682 0.0
O21 O 0.91128 0.99113 0.13241 0.0
C22 C 0.14365 0.91602 0.15953 0.0
C23 C 0.12309 0.26947 0.10654 0.0
C24 C 0.91552 0.24501 0.19652 0.0
O25 O 0.96972 0.17383 0.20235 0.0
O26 O 0.89381 0.2921 0.12562 0.0
C27 C 0.09172 0.26835 0.86711 0.0
O28 O 0.87635 0.98835 0.92595 0.0
O29 O 0.93596 0.84051 0.92976 0.0
C30 C 0.85468 0.24817 0.85911 0.0
C31 C 0.87587 0.89594 0.90877 0.0
Fe32 Fe 0.51666 0.807 0.54181 0.0
O33 O 0.49637 0.66125 0.55401 0.0
Fe34 Fe 0.59737 0.5695 0.52561 0.0
Fe35 Fe 0.40437 0.58767 0.49388 0.0
O36 O 0.50477 0.66001 0.55635 0.0
O37 O 0.50627 0.49625 0.46398 0.0
O38 O 0.49756 0.49781 0.46117 0.0
Fe39 Fe 0.48711 0.34997 0.47916 0.0
C40 C 0.33205 0.76551 0.59321 0.0
O41 O 0.43939 0.82539 0.43884 0.0
O42 O 0.42395 0.67702 0.38174 0.0
O43 O 0.59894 0.35287 0.40848 0.0
O44 O 0.68269 0.46489 0.48109 0.0
O45 O 0.62805 0.65347 0.41336 0.0
O46 O 0.62231 0.80815 0.45928 0.0
O47 O 0.32208 0.49493 0.42173 0.0
O48 O 0.40673 0.36746 0.38008 0.0
C49 C 0.64953 0.7461 0.40604 0.0
O50 O 0.5644 0.33378 0.5822 0.0
O51 O 0.57297 0.48297 0.6379 0.0
O52 O 0.40576 0.80204 0.6134 0.0
O53 O 0.31926 0.69246 0.54109 0.0
C54 C 0.41176 0.7709 0.38018 0.0
C55 C 0.33952 0.41906 0.37426 0.0
C56 C 0.3532 0.41225 0.61313 0.0
O57 O 0.37721 0.50393 0.60674 0.0
O58 O 0.38016 0.34952 0.56042 0.0
C59 C 0.67173 0.39274 0.42808 0.0
O60 O 0.68025 0.6585 0.59838 0.0
O61 O 0.59774 0.78717 0.64123 0.0
C62 C 0.58675 0.38988 0.64171 0.0
C63 C 0.66368 0.73325 0.6467 0.0
C64 C 0.23607 0.24877 0.21523 0.0
C65 C 0.18302 0.31208 0.16884 0.0
C66 C 0.28361 0.28403 0.28309 0.0
C67 C 0.28069 0.38442 0.30783 0.0
H68 H 0.23957 0.17051 0.20067 0.0
H69 H 0.32303 0.23129 0.31678 0.0
S70 S 0.15252 0.58192 0.20701 0.0
N71 N 0.13118 0.48182 0.15196 0.0
N72 N 0.22063 0.54665 0.28028 0.0
C73 C 0.22811 0.44882 0.26228 0.0
C74 C 0.17981 0.41325 0.19243 0.0
C75 C 0.80178 0.21266 0.30682 0.0
C76 C 0.87071 0.27343 0.27487 0.0
C77 C 0.74092 0.25025 0.36219 0.0
C78 C 0.74641 0.3505 0.38644 0.0
H79 H 0.79061 0.13883 0.28291 0.0
H80 H 0.68642 0.20204 0.38184 0.0
S81 S 0.92108 0.53623 0.32705 0.0
N82 N 0.94612 0.43496 0.27638 0.0
N83 N 0.83144 0.50654 0.38135 0.0
C84 C 0.81882 0.40968 0.36032 0.0
C85 C 0.88085 0.37104 0.30365 0.0
C86 C 0.81605 0.91287 0.28114 0.0
C87 C 0.84036 0.85551 0.21157 0.0
C88 C 0.75356 0.87756 0.34229 0.0
C89 C 0.71295 0.78244 0.3372 0.0
H90 H 0.84739 0.98484 0.2897 0.0
H91 H 0.73837 0.92489 0.39501 0.0
S92 S 0.75336 0.60245 0.16619 0.0
N93 N 0.81903 0.69903 0.14024 0.0
N94 N 0.70167 0.63146 0.25522 0.0
C95 C 0.737 0.72372 0.26778 0.0
C96 C 0.80082 0.76027 0.20525 0.0
C97 C 0.26732 0.80838 0.19025 0.0
C98 C 0.21393 0.88485 0.21626 0.0
C99 C 0.33196 0.77313 0.24238 0.0
C100 C 0.34792 0.81444 0.32202 0.0
H101 H 0.2586 0.77335 0.12929 0.0
H102 H 0.36933 0.71262 0.22027 0.0
S103 S 0.22973 1.01872 0.42015 0.0
N104 N 0.18349 1.00185 0.32741 0.0
N105 N 0.30599 0.93803 0.4245 0.0
C106 C 0.29693 0.89308 0.34812 0.0
C107 C 0.22996 0.92775 0.29557 0.0
C108 C 0.12188 0.79617 0.71072 0.0
C109 C 0.13313 0.8923 0.74295 0.0
C110 C 0.18364 0.75725 0.65607 0.0
C111 C 0.25889 0.81304 0.63367 0.0
H112 H 0.06778 0.74842 0.73253 0.0
H113 H 0.1752 0.68076 0.63675 0.0
S114 S 0.31576 1.07016 0.69921 0.0
N115 N 0.22296 1.04235 0.74755 0.0
N116 N 0.33706 0.97299 0.64192 0.0
C117 C 0.26752 0.91203 0.66102 0.0
C118 C 0.20519 0.9507 0.71674 0.0
C119 C 0.1683 0.263 0.72474 0.0
C120 C 0.15648 0.31029 0.80303 0.0
C121 C 0.23205 0.2965 0.6642 0.0
C122 C 0.28658 0.37904 0.67934 0.0
H123 H 0.12743 0.19961 0.70992 0.0
H124 H 0.23819 0.25754 0.60469 0.0
S125 S 0.27721 0.53407 0.87209 0.0
N126 N 0.20082 0.44726 0.89086 0.0
N127 N 0.32087 0.51114 0.77715 0.0
C128 C 0.27322 0.42961 0.75623 0.0
C129 C 0.20804 0.39515 0.81796 0.0
C130 C 0.78777 0.27183 0.71491 0.0
C131 C 0.78327 0.27899 0.80499 0.0
C132 C 0.72262 0.30617 0.6631 0.0
C133 C 0.65202 0.35208 0.69922 0.0
H134 H 0.84285 0.24184 0.68398 0.0
H135 H 0.72874 0.29903 0.59378 0.0
S136 S 0.60828 0.38871 0.93104 0.0
N137 N 0.69942 0.33267 0.92852 0.0
N138 N 0.58047 0.4026 0.82922 0.0
C139 C 0.64668 0.36083 0.78861 0.0
C140 C 0.71149 0.32311 0.84195 0.0
C141 C 0.78896 0.75465 0.85068 0.0
C142 C 0.81732 0.85638 0.84433 0.0
C143 C 0.74302 0.71173 0.78412 0.0
C144 C 0.72579 0.76881 0.70845 0.0
H145 H 0.8022 0.70811 0.90767 0.0
H146 H 0.71899 0.63475 0.7929 0.0
S147 S 0.7951 1.03236 0.65397 0.0
N148 N 0.83039 1.0092 0.75211 0.0
N149 N 0.745 0.92831 0.62776 0.0
C150 C 0.75608 0.86887 0.70012 0.0
C151 C 0.80156 0.91282 0.7678 0.0
loop_
_geom_bond_atom_site_label_1
_geom_bond_atom_site_label_2
_geom_bond_distance
_geom_bond_site_symmetry_2
_ccdc_geom_bond_type
Fe0 O1 1.886 . S
Fe0 O4 1.715 1_554 S
Fe0 O9 2.077 . S
Fe0 O14 1.935 1_554 S
Fe0 O20 2.077 1_455 S
Fe0 O29 1.935 1_454 S
O1 Fe0 1.886 . S
O1 Fe3 1.715 1_565 S
Fe2 O4 1.886 . S
Fe2 O5 1.715 1_565 S
Fe2 O12 1.935 1_565 S
Fe2 O13 2.077 . S
Fe2 O19 1.935 1_465 S
Fe2 O28 2.077 1_455 S
Fe3 O1 1.715 1_545 S
Fe3 O6 1.886 . S
Fe3 O10 1.935 1_545 S
Fe3 O15 2.077 . S
Fe3 O21 1.935 1_445 S
Fe3 O25 2.077 1_455 S
O4 Fe0 1.715 1_556 S
O4 Fe2 1.886 . S
O5 Fe2 1.715 1_545 S
O5 Fe7 1.886 . S
O6 Fe3 1.886 . S
O6 Fe7 1.715 1_554 S
Fe7 O5 1.886 . S
Fe7 O6 1.715 1_556 S
Fe7 O11 2.077 . S
Fe7 O16 1.935 1_556 S
Fe7 O18 2.077 1_455 S
Fe7 O26 1.935 1_456 S
C8 O20 1.381 . S
C8 O21 1.421 . S
O9 Fe0 2.077 . S
O9 C22 1.381 . S
O10 Fe3 1.935 1_565 S
O10 C22 1.421 . S
O11 Fe7 2.077 . S
O11 C27 1.381 . S
O12 Fe2 1.935 1_545 S
O12 C27 1.421 . S
O13 Fe2 2.077 . S
O13 C17 1.381 . S
O14 Fe0 1.935 1_556 S
O14 C17 1.421 . S
O15 Fe3 2.077 . S
O15 C23 1.381 . S
O16 Fe7 1.935 1_554 S
O16 C23 1.421 . S
C17 O13 1.381 . S
C17 O14 1.421 . S
O18 Fe7 2.077 1_655 S
O18 C30 1.381 . S
O19 Fe2 1.935 1_645 S
O19 C30 1.421 . S
O20 Fe0 2.077 1_655 S
O20 C8 1.381 . S
O21 Fe3 1.935 1_665 S
O21 C8 1.421 . S
C22 O9 1.381 . S
C22 O10 1.421 . S
C23 O15 1.381 . S
C23 O16 1.421 . S
C24 O25 1.381 . S
C24 O26 1.421 . S
O25 Fe3 2.077 1_655 S
O25 C24 1.381 . S
O26 Fe7 1.935 1_654 S
O26 C24 1.421 . S
C27 O11 1.381 . S
C27 O12 1.421 . S
O28 Fe2 2.077 1_655 S
O28 C31 1.381 . S
O29 Fe0 1.935 1_656 S
O29 C31 1.421 . S
C30 O18 1.381 . S
C30 O19 1.421 . S
C31 O28 1.381 . S
C31 O29 1.421 . S
Fe32 O33 1.886 . S
Fe32 O36 1.715 . S
Fe32 O41 2.077 . S
Fe32 O46 1.935 . S
Fe32 O52 2.077 . S
Fe32 O61 1.935 . S
O33 Fe32 1.886 . S
O33 Fe35 1.715 . S
Fe34 O36 1.886 . S
Fe34 O37 1.715 . S
Fe34 O44 1.935 . S
Fe34 O45 2.077 . S
Fe34 O51 1.935 . S
Fe34 O60 2.077 . S
Fe35 O33 1.715 . S
Fe35 O38 1.886 . S
Fe35 O42 1.935 . S
Fe35 O47 2.077 . S
Fe35 O53 1.935 . S
Fe35 O57 2.077 . S
O36 Fe32 1.715 . S
O36 Fe34 1.886 . S
O37 Fe34 1.715 . S
O37 Fe39 1.886 . S
O38 Fe35 1.886 . S
O38 Fe39 1.715 . S
Fe39 O37 1.886 . S
Fe39 O38 1.715 . S
Fe39 O43 2.077 . S
Fe39 O48 1.935 . S
Fe39 O50 2.077 . S
Fe39 O58 1.935 . S
C40 O52 1.381 . S
C40 O53 1.421 . S
O41 Fe32 2.077 . S
O41 C54 1.381 . S
O42 Fe35 1.935 . S
O42 C54 1.421 . S
O43 Fe39 2.077 . S
O43 C59 1.381 . S
O44 Fe34 1.935 . S
O44 C59 1.421 . S
O45 Fe34 2.077 . S
O45 C49 1.381 . S
O46 Fe32 1.935 . S
O46 C49 1.421 . S
O47 Fe35 2.077 . S
O47 C55 1.381 . S
O48 Fe39 1.935 . S
O48 C55 1.421 . S
C49 O45 1.381 . S
C49 O46 1.421 . S
O50 Fe39 2.077 . S
O50 C62 1.381 . S
O51 Fe34 1.935 . S
O51 C62 1.421 . S
O52 Fe32 2.077 . S
O52 C40 1.381 . S
O53 Fe35 1.935 . S
O53 C40 1.421 . S
C54 O41 1.381 . S
C54 O42 1.421 . S
C55 O47 1.381 . S
C55 O48 1.421 . S
C56 O57 1.381 . S
C56 O58 1.421 . S
O57 Fe35 2.077 . S
O57 C56 1.381 . S
O58 Fe39 1.935 . S
O58 C56 1.421 . S
C59 O43 1.381 . S
C59 O44 1.421 . S
O60 Fe34 2.077 . S
O60 C63 1.381 . S
O61 Fe32 1.935 . S
O61 C63 1.421 . S
C62 O50 1.381 . S
C62 O51 1.421 . S
C63 O60 1.381 . S
C63 O61 1.421 . S
C64 C65 1.369 . S
C64 C66 1.419 . S
C64 H68 0.930 . S
C65 C64 1.369 . S
C65 C74 1.429 . S
C66 C64 1.419 . S
C66 C67 1.363 . S
C66 H69 0.929 . S
C67 C66 1.363 . S
C67 C73 1.428 . S
H68 C64 0.930 . S
H69 C66 0.929 . S
S70 N71 1.613 . S
S70 N72 1.610 . S
N71 S70 1.613 . S
N71 C74 1.350 . S
N72 S70 1.610 . S
N72 C73 1.351 . S
C73 C67 1.428 . S
C73 N72 1.351 . S
C73 C74 1.434 . S
C74 C65 1.429 . S
C74 N71 1.350 . S
C74 C73 1.434 . S
C75 C76 1.369 . S
C75 C77 1.419 . S
C75 H79 0.930 . S
C76 C75 1.369 . S
C76 C85 1.429 . S
C77 C75 1.419 . S
C77 C78 1.363 . S
C77 H80 0.929 . S
C78 C77 1.363 . S
C78 C84 1.428 . S
H79 C75 0.930 . S
H80 C77 0.929 . S
S81 N82 1.613 . S
S81 N83 1.610 . S
N82 S81 1.613 . S
N82 C85 1.350 . S
N83 S81 1.610 . S
N83 C84 1.351 . S
C84 C78 1.428 . S
C84 N83 1.351 . S
C84 C85 1.434 . S
C85 C76 1.429 . S
C85 N82 1.350 . S
C85 C84 1.434 . S
C86 C87 1.369 . S
C86 C88 1.419 . S
C86 H90 0.930 . S
C87 C86 1.369 . S
C87 C96 1.429 . S
C88 C86 1.419 . S
C88 C89 1.363 . S
C88 H91 0.929 . S
C89 C88 1.363 . S
C89 C95 1.428 . S
H90 C86 0.930 . S
H91 C88 0.929 . S
S92 N93 1.613 . S
S92 N94 1.610 . S
N93 S92 1.613 . S
N93 C96 1.350 . S
N94 S92 1.610 . S
N94 C95 1.351 . S
C95 C89 1.428 . S
C95 N94 1.351 . S
C95 C96 1.434 . S
C96 C87 1.429 . S
C96 N93 1.350 . S
C96 C95 1.434 . S
C97 C98 1.369 . S
C97 C99 1.419 . S
C97 H101 0.930 . S
C98 C97 1.369 . S
C98 C107 1.429 . S
C99 C97 1.419 . S
C99 C100 1.363 . S
C99 H102 0.929 . S
C100 C99 1.363 . S
C100 C106 1.428 . S
H101 C97 0.930 . S
H102 C99 0.929 . S
S103 N104 1.613 . S
S103 N105 1.610 . S
N104 S103 1.613 . S
N104 C107 1.350 . S
N105 S103 1.610 . S
N105 C106 1.351 . S
C106 C100 1.428 . S
C106 N105 1.351 . S
C106 C107 1.434 . S
C107 C98 1.429 . S
C107 N104 1.350 . S
C107 C106 1.434 . S
C108 C109 1.369 . S
C108 C110 1.419 . S
C108 H112 0.930 . S
C109 C108 1.369 . S
C109 C118 1.429 . S
C110 C108 1.419 . S
C110 C111 1.363 . S
C110 H113 0.929 . S
C111 C110 1.363 . S
C111 C117 1.428 . S
H112 C108 0.930 . S
H113 C110 0.929 . S
S114 N115 1.613 . S
S114 N116 1.610 . S
N115 S114 1.613 . S
N115 C118 1.350 . S
N116 S114 1.610 . S
N116 C117 1.351 . S
C117 C111 1.428 . S
C117 N116 1.351 . S
C117 C118 1.434 . S
C118 C109 1.429 . S
C118 N115 1.350 . S
C118 C117 1.434 . S
C119 C120 1.369 . S
C119 C121 1.419 . S
C119 H123 0.930 . S
C120 C119 1.369 . S
C120 C129 1.429 . S
C121 C119 1.419 . S
C121 C122 1.363 . S
C121 H124 0.929 . S
C122 C121 1.363 . S
C122 C128 1.428 . S
H123 C119 0.930 . S
H124 C121 0.929 . S
S125 N126 1.613 . S
S125 N127 1.610 . S
N126 S125 1.613 . S
N126 C129 1.350 . S
N127 S125 1.610 . S
N127 C128 1.351 . S
C128 C122 1.428 . S
C128 N127 1.351 . S
C128 C129 1.434 . S
C129 C120 1.429 . S
C129 N126 1.350 . S
C129 C128 1.434 . S
C130 C131 1.369 . S
C130 C132 1.419 . S
C130 H134 0.930 . S
C131 C130 1.369 . S
C131 C140 1.429 . S
C132 C130 1.419 . S
C132 C133 1.363 . S
C132 H135 0.929 . S
C133 C132 1.363 . S
C133 C139 1.428 . S
H134 C130 0.930 . S
H135 C132 0.929 . S
S136 N137 1.613 . S
S136 N138 1.610 . S
N137 S136 1.613 . S
N137 C140 1.350 . S
N138 S136 1.610 . S
N138 C139 1.351 . S
C139 C133 1.428 . S
C139 N138 1.351 . S
C139 C140 1.434 . S
C140 C131 1.429 . S
C140 N137 1.350 . S
C140 C139 1.434 . S
C141 C142 1.369 . S
C141 C143 1.419 . S
C141 H145 0.930 . S
C142 C141 1.369 . S
C142 C151 1.429 . S
C143 C141 1.419 . S
C143 C144 1.363 . S
C143 H146 0.929 . S
C144 C143 1.363 . S
C144 C150 1.428 . S
H145 C141 0.930 . S
H146 C143 0.929 . S
S147 N148 1.613 . S
S147 N149 1.610 . S
N148 S147 1.613 . S
N148 C151 1.350 . S
N149 S147 1.610 . S
N149 C150 1.351 . S
C150 C144 1.428 . S
C150 N149 1.351 . S
C150 C151 1.434 . S
C151 C142 1.429 . S
C151 N148 1.350 . S
C151 C150 1.434 . S
C65 C23 1.450 . S
C67 C55 1.452 . S
C76 C24 1.449 . S
C78 C59 1.447 . S
C87 C8 1.448 . S
C89 C49 1.452 . S
C98 C22 1.452 . S
C100 C54 1.449 . S
C109 C17 1.456 . S
C111 C40 1.456 . S
C122 C56 1.455 . S
C120 C27 1.454 . S
C131 C30 1.456 . S
C133 C62 1.456 . S
C144 C63 1.448 . S
C142 C31 1.452 . S
