# Generated by pormake.
# Topology scu, (8,4)-cn, num edge types: 1
# Building blocks:
#     Node 0, Type 0, BuildingBlock: GIZVER_clean_sbu_0, # of connection points: 8
#     Node 1, Type 1, BuildingBlock: MUDLON_clean_sbu_0, # of connection points: 4
#     Node 2, Type 1, BuildingBlock: MUDLON_clean_sbu_0, # of connection points: 4
#     Edge 3, Type (0, 1), BuildingBlock: XIVTED_clean_linker_0, # of connection points: 2
#     Edge 4, Type (0, 1), BuildingBlock: XIVTED_clean_linker_0, # of connection points: 2
#     Edge 5, Type (0, 1), BuildingBlock: XIVTED_clean_linker_0, # of connection points: 2
#     Edge 6, Type (0, 1), BuildingBlock: XIVTED_clean_linker_0, # of connection points: 2
#     Edge 7, Type (0, 1), BuildingBlock: XIVTED_clean_linker_0, # of connection points: 2
#     Edge 8, Type (0, 1), BuildingBlock: XIVTED_clean_linker_0, # of connection points: 2
#     Edge 9, Type (0, 1), BuildingBlock: XIVTED_clean_linker_0, # of connection points: 2
#     Edge 10, Type (0, 1), BuildingBlock: XIVTED_clean_linker_0, # of connection points: 2
# Relax obj value: 0.010
# Max RMSD: 0.073
# Mean RMSD: 0.042
data_MOF--net-scu--node1-GIZVER_clean_sbu_0--node2-MUDLON_clean_sbu_0--edge1-XIVTED_clean_linker_0
_symmetry_space_group_name_H-M    P1
_symmetry_Int_Tables_number       1
_symmetry_cell_setting            triclinic
loop_
_symmetry_equiv_pos_as_xyz
'x, y, z'
_cell_length_a     23.36911
_cell_length_b     24.127954
_cell_length_c     22.736957
_cell_angle_alpha  99.620935
_cell_angle_beta   81.593534
_cell_angle_gamma 116.78585
loop_
_atom_site_label
_atom_site_type_symbol
_atom_site_fract_x
_atom_site_fract_y
_atom_site_fract_z
_atom_type_partial_charge
Co0 Co 0.02936 0.96398 0.1838 0.0
Co1 Co 0.12427 0.0515 0.12601 0.0
Co2 Co 1.00009 1.01866 0.0652 0.0
O3 O 0.04661 0.98372 0.10291 0.0
H4 H 0.05578 0.95297 0.07552 0.0
O5 O 0.95707 0.05679 1.02639 0.0
Co6 Co 0.99276 0.08522 0.94858 0.0
Co7 Co 0.88542 0.99944 0.98875 0.0
H8 H 0.9468 0.08691 0.05369 0.0
O9 O 0.19365 0.03973 0.14119 0.0
O10 O 0.11035 0.03851 0.20577 0.0
O11 O 0.13505 0.13593 0.12654 0.0
O12 O 0.03074 0.10006 0.11944 0.0
O13 O 0.0769 0.05043 1.00685 0.0
O14 O 0.02367 0.11565 0.87978 0.0
O15 O 0.97383 0.15225 0.95759 0.0
O16 O 0.02111 0.02159 0.92808 0.0
O17 O 0.96622 0.93536 1.01197 0.0
O18 O 0.87398 0.91492 0.97564 0.0
O19 O 0.90866 0.03017 0.91502 0.0
O20 O 0.82231 0.02206 0.97866 0.0
C21 C 0.05167 0.91178 0.23166 0.0
C22 C 0.92733 0.99418 0.18074 0.0
C23 C 0.08444 0.14402 0.13462 0.0
C24 C 0.16663 0.03842 0.19536 0.0
C25 C 1.00247 0.15636 0.90341 0.0
C26 C 0.07047 0.02899 0.95188 0.0
C27 C 0.91707 0.89888 0.98279 0.0
C28 C 0.85578 0.03711 0.92804 0.0
O29 O 0.01783 0.94116 0.25705 0.0
O30 O 0.07066 0.91469 0.17481 0.0
O31 O 0.92397 0.98555 0.12407 0.0
O32 O 0.98043 1.01076 0.20323 0.0
Mg33 Mg 0.04725 0.55171 0.56263 0.0
C34 C 0.0664 0.46333 0.46961 0.0
O35 O 0.11755 0.49063 0.50023 0.0
C36 C 0.00909 0.60584 0.67164 0.0
O37 O 0.0702 0.61879 0.67034 0.0
C38 C 0.03715 0.45862 0.6316 0.0
O39 O 0.98457 0.43687 0.6036 0.0
O40 O 0.08154 0.51263 0.62259 0.0
O41 O 0.0204 0.47868 0.48607 0.0
O42 O 0.10495 0.64064 0.52475 0.0
C43 C 0.12545 0.64239 0.46963 0.0
O44 O 0.12428 0.59129 0.43786 0.0
O45 O 0.97858 0.57379 0.62613 0.0
Mg46 Mg 0.49597 1.01084 0.58134 0.0
C47 C 0.40001 0.99541 0.50692 0.0
O48 O 0.39196 0.93939 0.51434 0.0
C49 C 0.63077 0.08794 0.61996 0.0
O50 O 0.64501 0.06899 0.56464 0.0
C51 C 0.4242 0.96655 0.69882 0.0
O52 O 0.48138 1.00241 0.71793 0.0
O53 O 0.4186 0.9548 0.64274 0.0
O54 O 0.44472 0.04273 0.53289 0.0
O55 O 0.54071 0.9633 0.51406 0.0
C56 C 0.55266 0.98018 0.4617 0.0
O57 O 0.53246 0.01971 0.45036 0.0
O58 O 0.57276 0.07797 0.63623 0.0
H59 H 0.18633 0.24371 0.18617 0.0
H60 H 0.96787 0.38855 0.39645 0.0
H61 H 0.9822 0.17183 0.17257 0.0
H62 H 0.16667 0.43979 0.41806 0.0
H63 H 0.97308 0.31677 0.30725 0.0
H64 H 0.18161 0.3258 0.26254 0.0
C65 C 0.14066 0.24565 0.19851 0.0
C66 C 0.08454 0.20026 0.17311 0.0
C67 C 0.0155 0.34406 0.33157 0.0
C68 C 0.07852 0.29397 0.26164 0.0
C69 C 0.01249 0.38489 0.38245 0.0
C70 C 0.06671 0.41995 0.41512 0.0
C71 C 0.07325 0.3388 0.31321 0.0
C72 C 0.12339 0.4135 0.39479 0.0
C73 C 0.13787 0.29242 0.24251 0.0
C74 C 0.02673 0.20553 0.19108 0.0
N75 N 0.12507 0.37386 0.34545 0.0
N76 N 0.02508 0.25107 0.23464 0.0
H77 H 0.91085 0.98798 0.30149 0.0
H78 H 0.56571 0.98437 0.3415 0.0
H79 H 0.81058 0.97945 0.15259 0.0
H80 H 0.64535 0.94645 0.48114 0.0
H81 H 0.65359 0.98031 0.27109 0.0
H82 H 0.81425 0.97292 0.36796 0.0
C83 C 0.86857 0.98307 0.28273 0.0
C84 C 0.86903 0.98545 0.22135 0.0
C85 C 0.65144 0.97196 0.31689 0.0
C86 C 0.75806 0.9679 0.29738 0.0
C87 C 0.6012 0.97414 0.35709 0.0
C88 C 0.59843 0.96599 0.41728 0.0
C89 C 0.69996 0.96258 0.33719 0.0
C90 C 0.64556 0.95278 0.43506 0.0
C91 C 0.81325 0.97399 0.32071 0.0
C92 C 0.81253 0.97813 0.19959 0.0
N93 N 0.695 0.9524 0.39535 0.0
N94 N 0.7595 0.97015 0.23765 0.0
H95 H 0.03613 0.91288 0.3534 0.0
H96 H 0.17079 0.66196 0.35326 0.0
H97 H 0.11568 0.83868 0.19427 0.0
H98 H 0.09835 0.74226 0.51306 0.0
H99 H 0.16334 0.73543 0.29629 0.0
H100 H 0.06867 0.85882 0.41365 0.0
C101 C 0.06025 0.885 0.331 0.0
C102 C 0.07203 0.87938 0.26842 0.0
C103 C 0.1499 0.73763 0.34396 0.0
C104 C 0.10993 0.81741 0.33757 0.0
C105 C 0.15441 0.69579 0.37668 0.0
C106 C 0.13442 0.69527 0.43804 0.0
C107 C 0.12471 0.77909 0.37257 0.0
C108 C 0.11398 0.74058 0.46584 0.0
C109 C 0.07922 0.85441 0.36559 0.0
C110 C 0.10471 0.84362 0.24223 0.0
N111 N 0.10878 0.77998 0.43276 0.0
N112 N 0.12199 0.81358 0.27684 0.0
H113 H 0.15835 0.08101 0.31432 0.0
H114 H 0.33679 0.90828 0.41779 0.0
H115 H 0.24486 0.98109 0.1872 0.0
H116 H 0.37629 0.0958 0.49842 0.0
H117 H 0.27632 0.91818 0.34447 0.0
H118 H 0.21323 0.07127 0.39406 0.0
C119 C 0.18873 0.05699 0.30333 0.0
C120 C 0.19789 0.03244 0.24418 0.0
C121 C 0.29813 0.95701 0.37836 0.0
C122 C 0.25877 0.02001 0.33454 0.0
C123 C 0.33242 0.95147 0.42036 0.0
C124 C 0.36199 1.00156 0.46405 0.0
C125 C 0.29218 1.01253 0.38066 0.0
C126 C 0.35468 0.05637 0.46511 0.0
C127 C 0.22001 0.05172 0.34858 0.0
C128 C 0.23738 1.00146 0.23211 0.0
N129 N 0.32007 0.06038 0.42403 0.0
N130 N 0.26592 0.99559 0.27703 0.0
H131 H 0.83185 0.81835 0.90132 0.0
H132 H 0.04943 0.6393 0.78316 0.0
H133 H 1.00044 0.8472 0.98269 0.0
H134 H 0.90415 0.63228 0.68097 0.0
H135 H 0.0158 0.69799 0.86676 0.0
H136 H 0.84241 0.73419 0.83134 0.0
C137 C 0.87041 0.80634 0.90536 0.0
C138 C 0.91575 0.84057 0.94785 0.0
C139 C 0.99068 0.68323 0.8264 0.0
C140 C 0.92803 0.74421 0.86738 0.0
C141 C 0.00982 0.6496 0.77852 0.0
C142 C 0.98019 0.63174 0.72461 0.0
C143 C 0.94169 0.69983 0.82056 0.0
C144 C 0.92845 0.64545 0.72164 0.0
C145 C 0.87648 0.75838 0.86507 0.0
C146 C 0.96454 0.82258 0.95066 0.0
N147 N 0.91136 0.67958 0.76877 0.0
N148 N 0.96965 0.7761 0.91067 0.0
H149 H 0.06431 0.96847 0.83802 0.0
H150 H 0.41805 0.99227 0.82093 0.0
H151 H 0.18265 0.03972 0.98735 0.0
H152 H 0.29841 0.9177 0.6725 0.0
H153 H 0.3269 0.99613 0.88624 0.0
H154 H 0.14431 0.93793 0.78026 0.0
C155 C 0.10705 0.9776 0.85876 0.0
C156 C 0.11718 1.0076 0.91738 0.0
C157 C 0.32027 0.97807 0.83958 0.0
C158 C 0.20907 0.9725 0.85138 0.0
C159 C 0.3723 0.97554 0.80224 0.0
C160 C 0.36627 0.95549 0.74086 0.0
C161 C 0.26181 0.96079 0.81536 0.0
C162 C 0.30557 0.93402 0.71938 0.0
C163 C 0.15264 0.95989 0.82578 0.0
C164 C 0.1731 1.01736 0.9421 0.0
N165 N 0.25602 0.93813 0.75638 0.0
N166 N 0.21716 1.00038 0.90882 0.0
H167 H 0.0134 0.14615 0.78273 0.0
H168 H 0.08658 0.49356 0.74225 0.0
H169 H 0.00585 0.27391 0.93771 0.0
H170 H 0.99521 0.33382 0.61381 0.0
H171 H 0.07851 0.422 0.81277 0.0
H172 H 0.02749 0.22277 0.71841 0.0
C173 C 0.01479 0.19055 0.80339 0.0
C174 C 0.00833 0.20356 0.86585 0.0
C175 C 0.0607 0.40304 0.76894 0.0
C176 C 0.02541 0.29239 0.79169 0.0
C177 C 0.06605 0.44368 0.72859 0.0
C178 C 0.04193 0.41933 0.67213 0.0
C179 C 0.03239 0.33817 0.75175 0.0
C180 C 0.01453 0.35444 0.65685 0.0
C181 C 0.02275 0.23428 0.76646 0.0
C182 C 0.01023 0.26192 0.88976 0.0
N183 N 0.01083 0.31629 0.6962 0.0
N184 N 0.01912 0.30465 0.85253 0.0
H185 H 0.75847 0.0728 0.94754 0.0
H186 H 0.75356 0.09793 0.60315 0.0
H187 H 0.89824 0.05299 0.80976 0.0
H188 H 0.61164 0.11176 0.74182 0.0
H189 H 0.81751 0.09937 0.67983 0.0
H190 H 0.71396 0.10285 0.87473 0.0
C191 C 0.78004 0.07497 0.90195 0.0
C192 C 0.83166 0.05943 0.88459 0.0
C193 C 0.77285 0.10301 0.69354 0.0
C194 C 0.78069 0.09404 0.80063 0.0
C195 C 0.73636 0.10254 0.64976 0.0
C196 C 0.67643 0.10362 0.6659 0.0
C197 C 0.7492 0.10438 0.75394 0.0
C198 C 0.65707 0.11005 0.72709 0.0
C199 C 0.75467 0.09243 0.86037 0.0
C200 C 0.85813 0.0641 0.82504 0.0
N201 N 0.69285 0.10926 0.76874 0.0
N202 N 0.83194 0.08039 0.78504 0.0
loop_
_geom_bond_atom_site_label_1
_geom_bond_atom_site_label_2
_geom_bond_distance
_geom_bond_site_symmetry_2
_ccdc_geom_bond_type
Co0 O3 2.042 . S
Co0 O10 2.264 1_565 S
Co0 O29 2.286 1_455 S
Co0 O30 2.069 . S
Co0 O32 2.015 1_455 S
Co1 O3 2.122 1_545 S
Co1 O9 2.073 . S
Co1 O10 2.327 . S
Co1 O11 1.976 . S
Co2 O3 2.087 1_545 S
Co2 O5 2.087 1_454 S
Co2 O12 2.111 . S
Co2 O13 2.143 1_554 S
Co2 O17 2.111 1_444 S
Co2 O31 2.143 1_445 S
O3 Co0 2.042 . S
O3 Co1 2.122 1_565 S
O3 Co2 2.087 1_565 S
O3 H4 0.980 . S
H4 O3 0.980 . S
O5 Co2 2.087 1_656 S
O5 Co6 2.042 1_655 S
O5 Co7 2.122 1_545 S
O5 H8 0.980 1_556 S
Co6 O5 2.042 1_455 S
Co6 O14 2.286 . S
Co6 O15 2.069 1_455 S
Co6 O16 2.015 . S
Co6 O19 2.264 1_455 S
Co7 O5 2.122 1_565 S
Co7 O18 1.976 . S
Co7 O19 2.327 1_565 S
Co7 O20 2.073 . S
H8 O5 0.980 1_554 S
O9 Co1 2.073 . S
O9 C24 1.245 . S
O10 Co0 2.264 1_545 S
O10 Co1 2.327 . S
O10 C24 1.257 . S
O11 Co1 1.976 . S
O11 C23 1.251 . S
O12 Co2 2.111 . S
O12 C23 1.274 . S
O13 Co2 2.143 1_556 S
O13 C26 1.246 . S
O14 Co6 2.286 . S
O14 C25 1.259 . S
O15 Co6 2.069 1_655 S
O15 C25 1.289 1_655 S
O16 Co6 2.015 . S
O16 C26 1.257 . S
O17 Co2 2.111 1_666 S
O17 C27 1.274 . S
O18 Co7 1.976 . S
O18 C27 1.251 . S
O19 Co6 2.264 1_655 S
O19 Co7 2.327 1_545 S
O19 C28 1.257 . S
O20 Co7 2.073 . S
O20 C28 1.245 1_565 S
C21 O29 1.259 1_455 S
C21 O30 1.289 . S
C22 O31 1.246 . S
C22 O32 1.257 . S
C23 O11 1.251 . S
C23 O12 1.274 . S
C24 O9 1.245 . S
C24 O10 1.257 . S
C25 O14 1.259 . S
C25 O15 1.289 1_455 S
C26 O13 1.246 . S
C26 O16 1.257 . S
C27 O17 1.274 . S
C27 O18 1.251 . S
C28 O19 1.257 . S
C28 O20 1.245 1_545 S
O29 Co0 2.286 1_655 S
O29 C21 1.259 1_655 S
O30 Co0 2.069 . S
O30 C21 1.289 . S
O31 Co2 2.143 1_665 S
O31 C22 1.246 . S
O32 Co0 2.015 1_655 S
O32 C22 1.257 . S
Mg33 O40 2.141 . S
Mg33 O41 2.048 . S
Mg33 O42 2.048 . S
Mg33 O45 2.141 . S
C34 O35 1.313 . S
C34 O41 1.195 1_455 S
O35 C34 1.313 . S
C36 O37 1.245 . S
C36 O45 1.289 1_455 S
O37 C36 1.245 . S
C38 O39 1.245 . S
C38 O40 1.289 1_455 S
O39 C38 1.245 . S
O40 Mg33 2.141 . S
O40 C38 1.289 1_655 S
O41 Mg33 2.048 . S
O41 C34 1.195 1_655 S
O42 Mg33 2.048 . S
O42 C43 1.195 1_655 S
C43 O42 1.195 1_455 S
C43 O44 1.313 . S
O44 C43 1.313 . S
O45 Mg33 2.141 . S
O45 C36 1.289 1_655 S
Mg46 O53 2.141 . S
Mg46 O54 2.048 . S
Mg46 O55 2.048 . S
Mg46 O58 2.141 . S
C47 O48 1.301 1_545 S
C47 O54 1.199 . S
O48 C47 1.301 1_565 S
C49 O50 1.245 . S
C49 O58 1.289 1_565 S
O50 C49 1.245 . S
C51 O52 1.245 . S
C51 O53 1.289 1_565 S
O52 C51 1.245 . S
O53 Mg46 2.141 . S
O53 C51 1.289 1_545 S
O54 Mg46 2.048 . S
O54 C47 1.199 . S
O55 Mg46 2.048 . S
O55 C56 1.203 . S
C56 O55 1.203 . S
C56 O57 1.304 1_545 S
O57 C56 1.304 1_565 S
O58 Mg46 2.141 . S
O58 C49 1.289 1_545 S
H59 C65 0.930 . S
H60 C69 0.930 . S
H61 C74 0.929 . S
H62 C72 0.929 . S
H63 C67 0.929 . S
H64 C73 0.929 . S
C65 H59 0.930 . S
C65 C66 1.367 . S
C65 C73 1.378 . S
C66 C65 1.367 . S
C66 C74 1.433 1_455 S
C67 H63 0.929 . S
C67 C69 1.378 . S
C67 C71 1.350 1_655 S
C68 C71 1.463 . S
C68 C73 1.350 . S
C68 N76 1.427 1_455 S
C69 H60 0.930 . S
C69 C67 1.378 . S
C69 C70 1.367 1_655 S
C70 C69 1.367 1_455 S
C70 C72 1.433 . S
C71 C67 1.350 1_455 S
C71 C68 1.463 . S
C71 N75 1.427 . S
C72 H62 0.929 . S
C72 C70 1.433 . S
C72 N75 1.384 . S
C73 H64 0.929 . S
C73 C65 1.378 . S
C73 C68 1.350 . S
C74 H61 0.929 . S
C74 C66 1.433 1_655 S
C74 N76 1.384 . S
N75 C71 1.427 . S
N75 C72 1.384 . S
N76 C68 1.427 1_655 S
N76 C74 1.384 . S
H77 C83 0.930 . S
H78 C87 0.930 . S
H79 C92 0.929 . S
H80 C90 0.929 . S
H81 C85 0.929 . S
H82 C91 0.929 . S
C83 H77 0.930 . S
C83 C84 1.367 1_545 S
C83 C91 1.378 . S
C84 C83 1.367 1_565 S
C84 C92 1.433 . S
C85 H81 0.929 . S
C85 C87 1.378 . S
C85 C89 1.350 1_565 S
C86 C89 1.463 . S
C86 C91 1.350 . S
C86 N94 1.427 1_545 S
C87 H78 0.930 . S
C87 C85 1.378 . S
C87 C88 1.367 1_565 S
C88 C87 1.367 1_545 S
C88 C90 1.433 . S
C89 C85 1.350 1_545 S
C89 C86 1.463 . S
C89 N93 1.428 . S
C90 H80 0.929 . S
C90 C88 1.433 . S
C90 N93 1.384 . S
C91 H82 0.929 . S
C91 C83 1.378 . S
C91 C86 1.350 . S
C92 H79 0.929 . S
C92 C84 1.433 . S
C92 N94 1.384 . S
N93 C89 1.428 . S
N93 C90 1.384 . S
N94 C86 1.427 1_565 S
N94 C92 1.384 . S
H95 C101 0.930 1_655 S
H96 C105 0.930 . S
H97 C110 0.929 . S
H98 C108 0.932 . S
H99 C103 0.929 . S
H100 C109 0.929 1_655 S
C101 H95 0.930 1_455 S
C101 C102 1.367 . S
C101 C109 1.378 . S
C102 C101 1.367 . S
C102 C110 1.433 . S
C103 H99 0.929 . S
C103 C105 1.378 . S
C103 C107 1.350 . S
C104 C107 1.463 . S
C104 C109 1.350 . S
C104 N112 1.427 . S
C105 H96 0.930 . S
C105 C103 1.378 . S
C105 C106 1.367 . S
C106 C105 1.367 . S
C106 C108 1.426 1_455 S
C107 C103 1.350 . S
C107 C104 1.463 . S
C107 N111 1.427 . S
C108 H98 0.932 . S
C108 C106 1.426 1_655 S
C108 N111 1.388 1_655 S
C109 H100 0.929 1_455 S
C109 C101 1.378 . S
C109 C104 1.350 . S
C110 H97 0.929 . S
C110 C102 1.433 . S
C110 N112 1.384 . S
N111 C107 1.427 . S
N111 C108 1.388 1_455 S
N112 C104 1.427 . S
N112 C110 1.384 . S
H113 C119 0.930 . S
H114 C123 0.930 . S
H115 C128 0.929 . S
H116 C126 0.929 . S
H117 C121 0.929 . S
H118 C127 0.929 . S
C119 H113 0.930 . S
C119 C120 1.367 1_545 S
C119 C127 1.378 . S
C120 C119 1.367 1_565 S
C120 C128 1.433 . S
C121 H117 0.929 . S
C121 C123 1.378 . S
C121 C125 1.350 . S
C122 C125 1.463 . S
C122 C127 1.350 1_565 S
C122 N130 1.427 . S
C123 H114 0.930 . S
C123 C121 1.378 . S
C123 C124 1.367 1_565 S
C124 C123 1.367 1_545 S
C124 C126 1.433 . S
C125 C121 1.350 . S
C125 C122 1.463 . S
C125 N129 1.427 1_565 S
C126 H116 0.929 . S
C126 C124 1.433 . S
C126 N129 1.384 . S
C127 H118 0.929 . S
C127 C119 1.378 . S
C127 C122 1.350 1_545 S
C128 H115 0.929 . S
C128 C120 1.433 . S
C128 N130 1.384 . S
N129 C125 1.427 1_545 S
N129 C126 1.384 . S
N130 C122 1.427 . S
N130 C128 1.384 . S
H131 C137 0.930 . S
H132 C141 0.930 . S
H133 C146 0.929 . S
H134 C144 0.929 . S
H135 C139 0.929 . S
H136 C145 0.929 . S
C137 H131 0.930 . S
C137 C138 1.367 1_655 S
C137 C145 1.378 . S
C138 C137 1.367 1_455 S
C138 C146 1.433 . S
C139 H135 0.929 . S
C139 C141 1.378 . S
C139 C143 1.350 . S
C140 C143 1.463 . S
C140 C145 1.350 1_455 S
C140 N148 1.427 . S
C141 H132 0.930 . S
C141 C139 1.378 . S
C141 C142 1.367 . S
C142 C141 1.367 . S
C142 C144 1.433 1_455 S
C143 C139 1.350 . S
C143 C140 1.463 . S
C143 N147 1.427 1_455 S
C144 H134 0.929 . S
C144 C142 1.433 1_655 S
C144 N147 1.384 . S
C145 H136 0.929 . S
C145 C137 1.378 . S
C145 C140 1.350 1_655 S
C146 H133 0.929 . S
C146 C138 1.433 . S
C146 N148 1.384 . S
N147 C143 1.427 1_655 S
N147 C144 1.384 . S
N148 C140 1.427 . S
N148 C146 1.384 . S
H149 C155 0.930 . S
H150 C159 0.930 . S
H151 C164 0.929 . S
H152 C162 0.929 . S
H153 C157 0.929 . S
H154 C163 0.929 . S
C155 H149 0.930 . S
C155 C156 1.367 . S
C155 C163 1.378 . S
C156 C155 1.367 . S
C156 C164 1.433 1_545 S
C157 H153 0.929 . S
C157 C159 1.378 . S
C157 C161 1.350 1_565 S
C158 C161 1.463 . S
C158 C163 1.350 . S
C158 N166 1.427 1_545 S
C159 H150 0.930 . S
C159 C157 1.378 . S
C159 C160 1.367 1_565 S
C160 C159 1.367 1_545 S
C160 C162 1.433 . S
C161 C157 1.350 1_545 S
C161 C158 1.463 . S
C161 N165 1.427 . S
C162 H152 0.929 . S
C162 C160 1.433 . S
C162 N165 1.384 . S
C163 H154 0.929 . S
C163 C155 1.378 . S
C163 C158 1.350 . S
C164 H151 0.929 . S
C164 C156 1.433 1_565 S
C164 N166 1.384 . S
N165 C161 1.427 . S
N165 C162 1.384 . S
N166 C158 1.427 1_565 S
N166 C164 1.384 . S
H167 C173 0.930 . S
H168 C177 0.930 . S
H169 C182 0.929 . S
H170 C180 0.929 . S
H171 C175 0.929 . S
H172 C181 0.929 . S
C173 H167 0.930 . S
C173 C174 1.367 . S
C173 C181 1.378 . S
C174 C173 1.367 . S
C174 C182 1.433 1_455 S
C175 H171 0.929 . S
C175 C177 1.378 . S
C175 C179 1.350 1_655 S
C176 C179 1.463 . S
C176 C181 1.350 . S
C176 N184 1.427 1_455 S
C177 H168 0.930 . S
C177 C175 1.378 . S
C177 C178 1.367 1_655 S
C178 C177 1.367 1_455 S
C178 C180 1.433 . S
C179 C175 1.350 1_455 S
C179 C176 1.463 . S
C179 N183 1.427 . S
C180 H170 0.929 . S
C180 C178 1.433 . S
C180 N183 1.384 . S
C181 H172 0.929 . S
C181 C173 1.378 . S
C181 C176 1.350 . S
C182 H169 0.929 . S
C182 C174 1.433 1_655 S
C182 N184 1.384 . S
N183 C179 1.427 . S
N183 C180 1.384 . S
N184 C176 1.427 1_655 S
N184 C182 1.384 . S
H185 C191 0.930 . S
H186 C195 0.933 . S
H187 C200 0.929 . S
H188 C198 0.929 . S
H189 C193 0.929 1_565 S
H190 C199 0.929 . S
C191 H185 0.930 . S
C191 C192 1.367 . S
C191 C199 1.378 . S
C192 C191 1.367 . S
C192 C200 1.433 . S
C193 H189 0.929 1_545 S
C193 C195 1.386 1_545 S
C193 C197 1.350 . S
C194 C197 1.463 . S
C194 C199 1.350 . S
C194 N202 1.427 . S
C195 H186 0.933 . S
C195 C193 1.386 1_565 S
C195 C196 1.356 1_565 S
C196 C195 1.356 1_545 S
C196 C198 1.433 . S
C197 C193 1.350 . S
C197 C194 1.463 . S
C197 N201 1.427 . S
C198 H188 0.929 . S
C198 C196 1.433 . S
C198 N201 1.384 . S
C199 H190 0.929 . S
C199 C191 1.378 . S
C199 C194 1.350 . S
C200 H187 0.929 . S
C200 C192 1.433 . S
C200 N202 1.384 . S
N201 C197 1.427 . S
N201 C198 1.384 . S
N202 C194 1.427 . S
N202 C200 1.384 . S
C66 C23 1.309 . S
C70 C34 1.388 . S
C84 C22 1.420 . S
C88 C56 1.462 . S
C102 C21 1.714 . S
C106 C43 1.723 . S
C120 C24 1.469 1_565 S
C124 C47 1.531 . S
C138 C27 1.250 1_455 S
C142 C36 1.318 . S
C156 C26 1.355 . S
C160 C51 1.403 1_545 S
C178 C38 1.666 . S
C174 C25 1.652 . S
C192 C28 1.422 . S
C196 C49 1.475 1_545 S
