# Generated by pormake.
# Topology pth, (4,4)-cn, num edge types: 1
# Building blocks:
#     Node 0, Type 0, BuildingBlock: CEKHIL_clean_sbu_0, # of connection points: 4
#     Node 1, Type 0, BuildingBlock: CEKHIL_clean_sbu_0, # of connection points: 4
#     Node 2, Type 0, BuildingBlock: CEKHIL_clean_sbu_0, # of connection points: 4
#     Node 3, Type 1, BuildingBlock: KOZSID_clean_sbu_0, # of connection points: 4
#     Node 4, Type 1, BuildingBlock: KOZSID_clean_sbu_0, # of connection points: 4
#     Node 5, Type 1, BuildingBlock: KOZSID_clean_sbu_0, # of connection points: 4
#     Edge 6, Type (0, 1), None
#     Edge 7, Type (0, 1), None
#     Edge 8, Type (0, 1), None
#     Edge 9, Type (0, 1), None
#     Edge 10, Type (0, 1), None
#     Edge 11, Type (0, 1), None
#     Edge 12, Type (0, 1), None
#     Edge 13, Type (0, 1), None
#     Edge 14, Type (0, 1), None
#     Edge 15, Type (0, 1), None
#     Edge 16, Type (0, 1), None
#     Edge 17, Type (0, 1), None
# Relax obj value: 0.006
# Max RMSD: 0.077
# Mean RMSD: 0.046
data_MOF--net-pth--node1-CEKHIL_clean_sbu_0--node2-KOZSID_clean_sbu_0--edge1-none
_symmetry_space_group_name_H-M    P1
_symmetry_Int_Tables_number       1
_symmetry_cell_setting            triclinic
loop_
_symmetry_equiv_pos_as_xyz
'x, y, z'
_cell_length_a     13.044606
_cell_length_b     13.082916
_cell_length_c     29.842107
_cell_angle_alpha  86.252461
_cell_angle_beta   84.830456
_cell_angle_gamma 120.28818
loop_
_atom_site_label
_atom_site_type_symbol
_atom_site_fract_x
_atom_site_fract_y
_atom_site_fract_z
_atom_type_partial_charge
Co0 Co 0.14397 0.09858 0.08738 0.0
O1 O 0.05854 0.9587 0.13288 0.0
O2 O 0.22454 0.00698 0.08873 0.0
C3 C 0.13742 0.23047 0.13248 0.0
O4 O 0.26634 0.23934 0.03939 0.0
Co5 Co 0.02814 0.24209 0.0543 0.0
O6 O 0.19441 0.36033 0.02675 0.0
C7 C 0.95544 0.00918 0.02225 0.0
C8 C 0.14177 0.93446 0.1217 0.0
C9 C 0.28011 0.33968 0.02259 0.0
O10 O 0.04035 0.00373 0.03987 0.0
O11 O 0.93165 0.0913 0.02834 0.0
O12 O 0.21828 0.20072 0.13469 0.0
O13 O 0.05904 0.17306 0.10652 0.0
Co14 Co 0.09488 0.15615 0.38733 0.0
O15 O 0.03678 0.21585 0.34064 0.0
O16 O 0.1782 0.33035 0.37972 0.0
C17 C 0.11074 0.02094 0.34691 0.0
O18 O 0.18646 0.1315 0.43618 0.0
Co19 Co 0.95462 0.8941 0.43184 0.0
O20 O 0.10368 0.93486 0.45709 0.0
C21 C 0.86449 0.05423 0.45511 0.0
C22 C 0.11251 0.3231 0.34843 0.0
C23 C 0.18635 0.04245 0.45786 0.0
O24 O 0.96396 0.14446 0.4345 0.0
O25 O 0.84352 0.94752 0.45597 0.0
O26 O 0.19572 0.1327 0.34077 0.0
O27 O 0.01722 0.99673 0.3745 0.0
Co28 Co 0.13453 0.1022 0.71979 0.0
O29 O 0.27823 0.18788 0.67493 0.0
O30 O 0.22683 0.02322 0.71878 0.0
C31 C 0.00394 0.10648 0.67448 0.0
O32 O 0.99179 0.97916 0.76713 0.0
Co33 Co 0.98724 0.21345 0.75462 0.0
O34 O 0.86759 0.04752 0.78123 0.0
C35 C 0.21939 0.28816 0.78675 0.0
C36 C 0.30249 0.10573 0.68655 0.0
C37 C 0.88982 0.96329 0.78445 0.0
O38 O 0.22624 0.20492 0.76784 0.0
O39 O 0.13584 0.31046 0.782 0.0
O40 O 0.03606 0.02744 0.67204 0.0
O41 O 0.05882 0.18537 0.7009 0.0
C42 C 0.25251 0.83509 0.15645 0.0
C43 C 0.3661 0.91874 0.134 0.0
C44 C 0.44653 0.90457 0.15591 0.0
C45 C 0.37854 0.81309 0.19028 0.0
N46 N 0.2593 0.76632 0.19113 0.0
Co47 Co 0.1299 0.63246 0.23641 0.0
N48 N 0.24838 0.62466 0.27297 0.0
C49 C 0.36839 0.70021 0.26582 0.0
C50 C 0.42783 0.6709 0.29489 0.0
C51 C 0.34091 0.56914 0.32156 0.0
C52 C 0.23245 0.54144 0.3072 0.0
N53 N 1.00001 0.49508 0.28025 0.0
C54 C 0.00716 0.42232 0.31293 0.0
C55 C 0.89398 0.33329 0.33388 0.0
C56 C 0.81283 0.34679 0.31242 0.0
C57 C 0.88048 0.44327 0.27993 0.0
N58 N 0.01057 0.64273 0.20109 0.0
C59 C 0.8898 0.57304 0.21012 0.0
C60 C 0.83032 0.60131 0.18078 0.0
C61 C 0.91811 0.69751 0.15205 0.0
C62 C 0.02662 0.72357 0.16599 0.0
N63 N 0.13585 0.51384 0.1988 0.0
C64 C 0.13826 0.32899 0.15501 0.0
C65 C 0.03422 0.33534 0.16213 0.0
C66 C 0.03463 0.4269 0.1842 0.0
C67 C 0.24212 0.41902 0.16878 0.0
C68 C 0.23945 0.51081 0.18974 0.0
N69 N 0.12528 0.75148 0.27434 0.0
C70 C 0.01369 0.81705 0.32164 0.0
C71 C 0.11715 0.92743 0.32292 0.0
C72 C 0.22516 0.94712 0.30027 0.0
C73 C 0.22745 0.85839 0.27689 0.0
C74 C 0.01945 0.73168 0.29712 0.0
H75 H 0.31314 0.87937 0.2607 0.0
H76 H 0.93666 0.65106 0.29658 0.0
H77 H 0.95135 0.42418 0.1898 0.0
H78 H 0.32225 0.57735 0.19891 0.0
C79 C 0.42341 0.78225 0.22636 0.0
C80 C 0.14139 0.82988 0.14646 0.0
C81 C 0.11826 0.43024 0.32369 0.0
C82 C 0.83494 0.48289 0.24687 0.0
H83 H 0.39026 0.98606 0.10567 0.0
H84 H 0.54338 0.95902 0.14909 0.0
H85 H 0.5238 0.71355 0.29464 0.0
H86 H 0.35751 0.51904 0.34712 0.0
H87 H 0.87183 0.26327 0.36094 0.0
H88 H 0.71611 0.29024 0.31865 0.0
H89 H 0.73441 0.55849 0.1808 0.0
H90 H 0.90349 0.74451 0.1245 0.0
H91 H 0.95155 0.26815 0.15165 0.0
H92 H 0.32556 0.41947 0.16311 0.0
H93 H 0.92753 0.79724 0.33862 0.0
H94 H 0.30797 0.03068 0.30055 0.0
C95 C 0.40744 0.99225 0.65852 0.0
C96 C 0.33466 0.88673 0.68763 0.0
C97 C 0.34508 0.79942 0.66876 0.0
C98 C 0.4246 0.85591 0.62973 0.0
N99 N 0.46756 0.97455 0.6231 0.0
Co100 Co 0.59207 0.09038 0.57209 0.0
N101 N 0.58728 0.95972 0.53965 0.0
C102 C 0.50819 0.84184 0.55108 0.0
C103 C 0.51344 0.7738 0.51904 0.0
C104 C 0.60365 0.85308 0.48582 0.0
C105 C 0.65205 0.96526 0.5004 0.0
N106 N 0.72277 0.2065 0.52252 0.0
C107 C 0.78728 0.18836 0.48869 0.0
C108 C 0.87524 0.29606 0.46376 0.0
C109 C 0.86927 0.38442 0.48352 0.0
C110 C 0.77812 0.32664 0.51909 0.0
N111 N 0.58977 0.22081 0.60312 0.0
C112 C 0.65909 0.33917 0.58932 0.0
C113 C 0.63385 0.40762 0.61581 0.0
C114 C 0.53969 0.32781 0.6476 0.0
C115 C 0.51203 0.21475 0.6383 0.0
N116 N 0.71923 0.09533 0.60662 0.0
C117 C 0.90578 0.10256 0.65123 0.0
C118 C 0.89463 0.20321 0.64429 0.0
C119 C 0.80248 0.1982 0.62168 0.0
C120 C 0.82104 0.99803 0.63601 0.0
C121 C 0.72872 0.99587 0.61459 0.0
N122 N 0.46471 0.08328 0.53732 0.0
C123 C 0.39162 0.17021 0.48316 0.0
C124 C 0.28285 0.0616 0.48594 0.0
C125 C 0.26662 0.96618 0.51594 0.0
C126 C 0.35666 0.97882 0.54096 0.0
C127 C 0.48087 0.17908 0.509 0.0
H128 H 0.33635 0.90161 0.56293 0.0
H129 H 0.56236 0.26383 0.50543 0.0
H130 H 0.80123 0.27906 0.6164 0.0
H131 H 0.66656 0.91219 0.60456 0.0
C132 C 0.44096 0.79797 0.59439 0.0
C133 C 0.40854 0.10432 0.66262 0.0
C134 C 0.76841 0.07074 0.48017 0.0
C135 C 0.74471 0.38238 0.55066 0.0
H136 H 0.27679 0.87177 0.7186 0.0
H137 H 0.29476 0.70474 0.68067 0.0
H138 H 0.46089 0.6777 0.52033 0.0
H139 H 0.63238 0.82923 0.45516 0.0
H140 H 0.93826 0.31139 0.43445 0.0
H141 H 0.92634 0.47972 0.47362 0.0
H142 H 0.67692 0.50393 0.61187 0.0
H143 H 0.49538 0.35047 0.67414 0.0
H144 H 0.95819 0.28652 0.6555 0.0
H145 H 0.82482 0.91729 0.64106 0.0
H146 H 0.40878 0.24729 0.46072 0.0
H147 H 0.18405 0.88034 0.52028 0.0
C148 C 0.81007 0.74629 0.82622 0.0
C149 C 0.90323 0.73163 0.80839 0.0
C150 C 0.8908 0.63343 0.8334 0.0
C151 C 0.79103 0.59314 0.86496 0.0
N152 N 0.73713 0.65752 0.86076 0.0
Co153 Co 0.59949 0.63835 0.90374 0.0
N154 N 0.58432 0.49925 0.94273 0.0
C155 C 0.65035 0.4478 0.93497 0.0
C156 C 0.61208 0.34619 0.9643 0.0
C157 C 0.51355 0.33016 0.99164 0.0
C158 C 0.49694 0.42328 0.97738 0.0
N159 N 0.47104 0.62971 0.94817 0.0
C160 C 0.41522 0.55828 0.98791 0.0
C161 C 0.3547 0.60107 1.01407 0.0
C162 C 0.3644 0.69626 0.98803 0.0
C163 C 0.43394 0.70914 0.9484 0.0
N164 N 0.60387 0.76833 0.86323 0.0
C165 C 0.52377 0.80486 0.86712 0.0
C166 C 0.53273 0.87613 0.82947 0.0
C167 C 0.62619 0.8878 0.80039 0.0
C168 C 0.67224 0.82671 0.82292 0.0
N169 N 0.47969 0.52149 0.86838 0.0
C170 C 0.30937 0.36368 0.81599 0.0
C171 C 0.28601 0.43615 0.84257 0.0
C172 C 0.37072 0.51284 0.86816 0.0
C173 C 0.41914 0.36936 0.81726 0.0
C174 C 0.50249 0.44834 0.84354 0.0
N175 N 0.7195 0.75493 0.9392 0.0
C176 C 0.80774 0.94624 0.9672 0.0
C177 C 0.87973 0.92079 0.99242 0.0
C178 C 0.87269 0.81122 0.98921 0.0
C179 C 0.79257 0.7301 0.96246 0.0
C180 C 0.72976 0.86376 0.94136 0.0
H181 H 0.79068 0.64761 0.96142 0.0
H182 H 0.67743 0.89014 0.92376 0.0
H183 H 0.34605 0.56526 0.88729 0.0
H184 H 0.58501 0.44922 0.84305 0.0
C185 C 0.7458 0.49653 0.89927 0.0
C186 C 0.79189 0.84423 0.80976 0.0
C187 C 0.39885 0.43896 0.99736 0.0
C188 C 0.45288 0.78297 0.90869 0.0
H189 H 0.97289 0.78495 0.78019 0.0
H190 H 0.94871 0.59676 0.82939 0.0
H191 H 0.65007 0.28933 0.96528 0.0
H192 H 0.46119 0.25821 0.01892 0.0
H193 H 0.30286 0.56335 0.04747 0.0
H194 H 0.32157 0.74652 0.99626 0.0
H195 H 0.48091 0.91849 0.82445 0.0
H196 H 0.66027 0.94083 0.76736 0.0
H197 H 0.20214 0.43489 0.84363 0.0
H198 H 0.44168 0.31498 0.79755 0.0
H199 H 0.80998 0.0301 0.96749 0.0
H200 H 0.92669 0.78714 1.00775 0.0
loop_
_geom_bond_atom_site_label_1
_geom_bond_atom_site_label_2
_geom_bond_distance
_geom_bond_site_symmetry_2
_ccdc_geom_bond_type
Co0 O1 2.216 1_545 S
Co0 O2 2.091 1_545 S
Co0 O4 2.004 . S
Co0 O10 2.021 1_545 S
Co0 O12 2.137 . S
Co0 O13 2.244 . S
O1 Co0 2.216 1_565 S
O1 C8 1.247 . S
O2 Co0 2.091 1_565 S
O2 C8 1.261 . S
C3 O12 1.247 . S
C3 O13 1.272 . S
O4 Co0 2.004 . S
O4 C9 1.259 1_554 S
Co5 O6 2.061 1_554 S
Co5 O11 2.052 1_455 S
Co5 O13 2.135 . S
O6 Co5 2.061 1_556 S
O6 C9 1.235 . S
C7 O10 1.238 1_655 S
C7 O11 1.241 1_565 S
C8 O1 1.247 . S
C8 O2 1.261 . S
C9 O4 1.259 1_556 S
C9 O6 1.235 . S
O10 Co0 2.021 1_565 S
O10 C7 1.238 1_455 S
O11 Co5 2.052 1_655 S
O11 C7 1.241 1_545 S
O12 Co0 2.137 . S
O12 C3 1.247 . S
O13 Co0 2.244 . S
O13 C3 1.272 . S
O13 Co5 2.135 . S
Co14 O15 2.216 . S
Co14 O16 2.091 . S
Co14 O18 2.004 . S
Co14 O24 2.021 . S
Co14 O26 2.137 . S
Co14 O27 2.244 1_545 S
O15 Co14 2.216 . S
O15 C22 1.247 . S
O16 Co14 2.091 . S
O16 C22 1.261 . S
C17 O26 1.247 . S
C17 O27 1.272 1_545 S
O18 Co14 2.004 . S
O18 C23 1.259 . S
Co19 O20 2.061 1_665 S
Co19 O25 2.052 1_565 S
Co19 O27 2.135 1_655 S
O20 Co19 2.061 1_445 S
O20 C23 1.235 . S
C21 O24 1.238 1_655 S
C21 O25 1.241 . S
C22 O15 1.247 . S
C22 O16 1.261 . S
C23 O18 1.259 . S
C23 O20 1.235 . S
O24 Co14 2.021 . S
O24 C21 1.238 1_455 S
O25 Co19 2.052 1_545 S
O25 C21 1.241 . S
O26 Co14 2.137 . S
O26 C17 1.247 . S
O27 Co14 2.244 1_565 S
O27 C17 1.272 1_565 S
O27 Co19 2.135 1_455 S
Co28 O29 2.216 . S
Co28 O30 2.091 . S
Co28 O32 2.004 1_545 S
Co28 O38 2.021 . S
Co28 O40 2.137 . S
Co28 O41 2.244 . S
O29 Co28 2.216 . S
O29 C36 1.247 . S
O30 Co28 2.091 . S
O30 C36 1.261 . S
C31 O40 1.247 1_655 S
C31 O41 1.272 1_655 S
O32 Co28 2.004 1_565 S
O32 C37 1.259 1_455 S
Co33 O34 2.061 . S
Co33 O39 2.052 1_655 S
Co33 O41 2.135 1_655 S
O34 Co33 2.061 . S
O34 C37 1.235 1_545 S
C35 O38 1.238 . S
C35 O39 1.241 . S
C36 O29 1.247 . S
C36 O30 1.261 . S
C37 O32 1.259 1_655 S
C37 O34 1.235 1_565 S
O38 Co28 2.021 . S
O38 C35 1.238 . S
O39 Co33 2.052 1_455 S
O39 C35 1.241 . S
O40 Co28 2.137 . S
O40 C31 1.247 1_455 S
O41 Co28 2.244 . S
O41 C31 1.272 1_455 S
O41 Co33 2.135 1_455 S
C42 C43 1.443 . S
C42 N46 1.376 . S
C42 C80 1.389 . S
C43 C42 1.443 . S
C43 C44 1.340 . S
C43 H83 0.951 1_565 S
C44 C43 1.340 . S
C44 C45 1.439 . S
C44 H84 0.950 . S
C45 C44 1.439 . S
C45 N46 1.374 . S
C45 C79 1.395 . S
N46 C42 1.376 . S
N46 C45 1.374 . S
N46 Co47 2.008 . S
Co47 N46 2.008 . S
Co47 N48 1.995 . S
Co47 N53 2.008 1_455 S
Co47 N58 1.995 1_455 S
Co47 N63 2.282 . S
Co47 N69 2.282 . S
N48 Co47 1.995 . S
N48 C49 1.376 . S
N48 C52 1.383 . S
C49 N48 1.376 . S
C49 C50 1.446 . S
C49 C79 1.391 . S
C50 C49 1.446 . S
C50 C51 1.339 . S
C50 H85 0.949 . S
C51 C50 1.339 . S
C51 C52 1.439 . S
C51 H86 0.950 . S
C52 N48 1.383 . S
C52 C51 1.439 . S
C52 C81 1.392 . S
N53 Co47 2.008 1_655 S
N53 C54 1.376 . S
N53 C57 1.374 . S
C54 N53 1.376 . S
C54 C55 1.443 . S
C54 C81 1.389 1_655 S
C55 C54 1.443 . S
C55 C56 1.340 . S
C55 H87 0.951 . S
C56 C55 1.340 . S
C56 C57 1.439 . S
C56 H88 0.950 . S
C57 N53 1.374 . S
C57 C56 1.439 . S
C57 C82 1.395 . S
N58 Co47 1.995 1_655 S
N58 C59 1.376 . S
N58 C62 1.383 . S
C59 N58 1.376 . S
C59 C60 1.446 . S
C59 C82 1.391 . S
C60 C59 1.446 . S
C60 C61 1.339 . S
C60 H89 0.949 . S
C61 C60 1.339 . S
C61 C62 1.439 . S
C61 H90 0.950 . S
C62 N58 1.383 . S
C62 C61 1.439 . S
C62 C80 1.392 1_655 S
N63 Co47 2.282 . S
N63 C66 1.332 1_455 S
N63 C68 1.332 . S
C64 C65 1.386 1_455 S
C64 C67 1.388 . S
C65 C64 1.386 1_655 S
C65 C66 1.382 . S
C65 H91 0.950 . S
C66 N63 1.332 1_655 S
C66 C65 1.382 . S
C66 H77 0.952 . S
C67 C64 1.388 . S
C67 C68 1.382 . S
C67 H92 0.950 . S
C68 N63 1.332 . S
C68 C67 1.382 . S
C68 H78 0.948 . S
N69 Co47 2.282 . S
N69 C73 1.332 . S
N69 C74 1.332 1_455 S
C70 C71 1.388 1_655 S
C70 C74 1.382 . S
C70 H93 0.950 . S
C71 C70 1.388 1_455 S
C71 C72 1.386 . S
C72 C71 1.386 . S
C72 C73 1.382 . S
C72 H94 0.950 . S
C73 N69 1.332 . S
C73 C72 1.382 . S
C73 H75 0.952 . S
C74 N69 1.332 1_655 S
C74 C70 1.382 . S
C74 H76 0.948 . S
H75 C73 0.952 . S
H76 C74 0.948 . S
H77 C66 0.952 . S
H78 C68 0.948 . S
C79 C45 1.395 . S
C79 C49 1.391 . S
C80 C42 1.389 . S
C80 C62 1.392 1_455 S
C81 C52 1.392 . S
C81 C54 1.389 1_455 S
C82 C57 1.395 . S
C82 C59 1.391 . S
H83 C43 0.951 1_545 S
H84 C44 0.950 . S
H85 C50 0.949 . S
H86 C51 0.950 . S
H87 C55 0.951 . S
H88 C56 0.950 . S
H89 C60 0.949 . S
H90 C61 0.950 . S
H91 C65 0.950 . S
H92 C67 0.950 . S
H93 C70 0.950 . S
H94 C72 0.950 . S
C95 C96 1.443 1_545 S
C95 N99 1.376 . S
C95 C133 1.389 . S
C96 C95 1.443 1_565 S
C96 C97 1.340 . S
C96 H136 0.951 . S
C97 C96 1.340 . S
C97 C98 1.439 . S
C97 H137 0.950 . S
C98 C97 1.439 . S
C98 N99 1.374 1_565 S
C98 C132 1.395 . S
N99 C95 1.376 . S
N99 C98 1.374 1_545 S
N99 Co100 2.008 . S
Co100 N99 2.008 . S
Co100 N101 1.995 . S
Co100 N106 2.008 . S
Co100 N111 1.995 . S
Co100 N116 2.282 . S
Co100 N122 2.282 . S
N101 Co100 1.995 . S
N101 C102 1.376 1_545 S
N101 C105 1.383 . S
C102 N101 1.376 1_565 S
C102 C103 1.446 . S
C102 C132 1.391 . S
C103 C102 1.446 . S
C103 C104 1.339 . S
C103 H138 0.949 . S
C104 C103 1.339 . S
C104 C105 1.439 1_565 S
C104 H139 0.950 . S
C105 N101 1.383 . S
C105 C104 1.439 1_545 S
C105 C134 1.392 . S
N106 Co100 2.008 . S
N106 C107 1.376 . S
N106 C110 1.374 . S
C107 N106 1.376 . S
C107 C108 1.443 . S
C107 C134 1.389 . S
C108 C107 1.443 . S
C108 C109 1.340 . S
C108 H140 0.951 1_655 S
C109 C108 1.340 . S
C109 C110 1.439 . S
C109 H141 0.950 1_655 S
C110 N106 1.374 . S
C110 C109 1.439 . S
C110 C135 1.395 . S
N111 Co100 1.995 . S
N111 C112 1.376 . S
N111 C115 1.383 . S
C112 N111 1.376 . S
C112 C113 1.446 . S
C112 C135 1.391 . S
C113 C112 1.446 . S
C113 C114 1.339 . S
C113 H142 0.949 . S
C114 C113 1.339 . S
C114 C115 1.439 . S
C114 H143 0.950 . S
C115 N111 1.383 . S
C115 C114 1.439 . S
C115 C133 1.392 . S
N116 Co100 2.282 . S
N116 C119 1.332 . S
N116 C121 1.332 . S
C117 C118 1.386 . S
C117 C120 1.388 . S
C118 C117 1.386 . S
C118 C119 1.382 . S
C118 H144 0.950 . S
C119 N116 1.332 . S
C119 C118 1.382 . S
C119 H130 0.952 . S
C120 C117 1.388 . S
C120 C121 1.382 . S
C120 H145 0.950 1_545 S
C121 N116 1.332 . S
C121 C120 1.382 . S
C121 H131 0.948 1_545 S
N122 Co100 2.282 . S
N122 C126 1.332 . S
N122 C127 1.332 . S
C123 C124 1.388 . S
C123 C127 1.382 . S
C123 H146 0.950 . S
C124 C123 1.388 . S
C124 C125 1.386 . S
C125 C124 1.386 . S
C125 C126 1.382 . S
C125 H147 0.950 1_545 S
C126 N122 1.332 . S
C126 C125 1.382 . S
C126 H128 0.945 1_545 S
C127 N122 1.332 . S
C127 C123 1.382 . S
C127 H129 0.948 . S
H128 C126 0.945 1_565 S
H129 C127 0.948 . S
H130 C119 0.952 . S
H131 C121 0.948 1_565 S
C132 C98 1.395 . S
C132 C102 1.391 . S
C133 C95 1.389 . S
C133 C115 1.392 . S
C134 C105 1.392 . S
C134 C107 1.389 . S
C135 C110 1.395 . S
C135 C112 1.391 . S
H136 C96 0.951 . S
H137 C97 0.950 . S
H138 C103 0.949 . S
H139 C104 0.950 . S
H140 C108 0.951 1_455 S
H141 C109 0.950 1_455 S
H142 C113 0.949 . S
H143 C114 0.950 . S
H144 C118 0.950 . S
H145 C120 0.950 1_565 S
H146 C123 0.950 . S
H147 C125 0.950 1_565 S
C148 C149 1.443 . S
C148 N152 1.376 . S
C148 C186 1.389 . S
C149 C148 1.443 . S
C149 C150 1.340 . S
C149 H189 0.951 1_655 S
C150 C149 1.340 . S
C150 C151 1.439 . S
C150 H190 0.950 1_655 S
C151 C150 1.439 . S
C151 N152 1.374 . S
C151 C185 1.395 . S
N152 C148 1.376 . S
N152 C151 1.374 . S
N152 Co153 2.008 . S
Co153 N152 2.008 . S
Co153 N154 1.995 . S
Co153 N159 2.008 . S
Co153 N164 1.995 . S
Co153 N169 2.282 . S
Co153 N175 2.282 . S
N154 Co153 1.995 . S
N154 C155 1.376 . S
N154 C158 1.383 . S
C155 N154 1.376 . S
C155 C156 1.446 . S
C155 C185 1.391 . S
C156 C155 1.446 . S
C156 C157 1.339 . S
C156 H191 0.949 . S
C157 C156 1.339 . S
C157 C158 1.439 . S
C157 H192 0.950 . S
C158 N154 1.383 . S
C158 C157 1.439 . S
C158 C187 1.392 . S
N159 Co153 2.008 . S
N159 C160 1.376 . S
N159 C163 1.374 . S
C160 N159 1.376 . S
C160 C161 1.443 . S
C160 C187 1.389 . S
C161 C160 1.443 . S
C161 C162 1.340 . S
C161 H193 0.951 . S
C162 C161 1.340 . S
C162 C163 1.439 . S
C162 H194 0.950 . S
C163 N159 1.374 . S
C163 C162 1.439 . S
C163 C188 1.395 . S
N164 Co153 1.995 . S
N164 C165 1.376 . S
N164 C168 1.383 . S
C165 N164 1.376 . S
C165 C166 1.446 . S
C165 C188 1.391 . S
C166 C165 1.446 . S
C166 C167 1.339 . S
C166 H195 0.949 . S
C167 C166 1.339 . S
C167 C168 1.439 . S
C167 H196 0.950 . S
C168 N164 1.383 . S
C168 C167 1.439 . S
C168 C186 1.392 . S
N169 Co153 2.282 . S
N169 C172 1.332 . S
N169 C174 1.332 . S
C170 C171 1.386 . S
C170 C173 1.388 . S
C171 C170 1.386 . S
C171 C172 1.382 . S
C171 H197 0.950 . S
C172 N169 1.332 . S
C172 C171 1.382 . S
C172 H183 0.952 . S
C173 C170 1.388 . S
C173 C174 1.382 . S
C173 H198 0.950 . S
C174 N169 1.332 . S
C174 C173 1.382 . S
C174 H184 0.948 . S
N175 Co153 2.282 . S
N175 C179 1.332 . S
N175 C180 1.332 . S
C176 C177 1.388 . S
C176 C180 1.382 . S
C176 H199 0.950 . S
C177 C176 1.388 . S
C177 C178 1.386 . S
C178 C177 1.386 . S
C178 C179 1.382 . S
C178 H200 0.950 . S
C179 N175 1.332 . S
C179 C178 1.382 . S
C179 H181 0.952 . S
C180 N175 1.332 . S
C180 C176 1.382 . S
C180 H182 0.948 . S
H181 C179 0.952 . S
H182 C180 0.948 . S
H183 C172 0.952 . S
H184 C174 0.948 . S
C185 C151 1.395 . S
C185 C155 1.391 . S
C186 C148 1.389 . S
C186 C168 1.392 . S
C187 C158 1.392 . S
C187 C160 1.389 . S
C188 C163 1.395 . S
C188 C165 1.391 . S
H189 C149 0.951 1_455 S
H190 C150 0.950 1_455 S
H191 C156 0.949 . S
H192 C157 0.950 . S
H193 C161 0.951 . S
H194 C162 0.950 . S
H195 C166 0.949 . S
H196 C167 0.950 . S
H197 C171 0.950 . S
H198 C173 0.950 . S
H199 C176 0.950 . S
H200 C178 0.950 . S
C64 C3 1.512 . S
C21 C134 1.587 . S
C37 C186 1.478 . S
C8 C80 1.542 . S
C124 C23 1.491 . S
C35 C170 1.489 . S
C117 C31 1.495 . S
C7 C177 1.487 1_554 S
C71 C17 1.515 1_565 S
C133 C36 1.479 . S
C187 C9 1.476 . S
C22 C81 1.565 . S
