# Generated by pormake.
# Topology scu, (8,4)-cn, num edge types: 1
# Building blocks:
#     Node 0, Type 0, BuildingBlock: TAGTUT_clean_sbu_3, # of connection points: 8
#     Node 1, Type 1, BuildingBlock: MUDLON_clean_sbu_0, # of connection points: 4
#     Node 2, Type 1, BuildingBlock: MUDLON_clean_sbu_0, # of connection points: 4
#     Edge 3, Type (0, 1), BuildingBlock: XIVTED_clean_linker_0, # of connection points: 2
#     Edge 4, Type (0, 1), BuildingBlock: XIVTED_clean_linker_0, # of connection points: 2
#     Edge 5, Type (0, 1), BuildingBlock: XIVTED_clean_linker_0, # of connection points: 2
#     Edge 6, Type (0, 1), BuildingBlock: XIVTED_clean_linker_0, # of connection points: 2
#     Edge 7, Type (0, 1), BuildingBlock: XIVTED_clean_linker_0, # of connection points: 2
#     Edge 8, Type (0, 1), BuildingBlock: XIVTED_clean_linker_0, # of connection points: 2
#     Edge 9, Type (0, 1), BuildingBlock: XIVTED_clean_linker_0, # of connection points: 2
#     Edge 10, Type (0, 1), BuildingBlock: XIVTED_clean_linker_0, # of connection points: 2
# Relax obj value: 0.056
# Max RMSD: 0.124
# Mean RMSD: 0.086
data_MOF--net-scu--node1-TAGTUT_clean_sbu_3--node2-MUDLON_clean_sbu_0--edge1-XIVTED_clean_linker_0
_symmetry_space_group_name_H-M    P1
_symmetry_Int_Tables_number       1
_symmetry_cell_setting            triclinic
loop_
_symmetry_equiv_pos_as_xyz
'x, y, z'
_cell_length_a     27.066006
_cell_length_b     22.426108
_cell_length_c     21.033895
_cell_angle_alpha  90.080869
_cell_angle_beta   90.697149
_cell_angle_gamma 90.043091
loop_
_atom_site_label
_atom_site_type_symbol
_atom_site_fract_x
_atom_site_fract_y
_atom_site_fract_z
_atom_type_partial_charge
C0 C 0.00889 0.89534 0.09222 0.0
C1 C 0.82661 0.9777 0.07992 0.0
C2 C 0.86836 0.03129 0.88878 0.0
Mg3 Mg 0.107 0.93353 0.01563 0.0
Mg4 Mg 0.12748 0.07273 0.97662 0.0
O5 O 0.08395 0.00819 0.9711 0.0
Mg6 Mg 0.0136 0.0128 0.00154 0.0
O7 O 0.94321 0.00813 0.03205 0.0
Mg8 Mg 0.92161 0.93124 0.99034 0.0
Mg9 Mg 0.89868 0.07136 0.02163 0.0
C10 C 0.03049 0.13333 0.91595 0.0
O11 O 0.02424 0.09341 0.07088 0.0
O12 O 0.17745 0.93723 0.95284 0.0
O13 O 0.94913 0.13785 0.05994 0.0
O14 O 0.14773 0.98613 0.09598 0.0
O15 O 0.1874 0.03311 0.92424 0.0
O16 O 0.15179 0.08309 0.07334 0.0
O17 O 0.99445 0.93639 0.93455 0.0
O18 O 0.06419 0.88357 0.93596 0.0
C19 C 0.02005 0.89228 0.91522 0.0
C20 C 0.20066 0.97821 0.92262 0.0
O21 O 1.00148 0.08916 0.92823 0.0
O22 O 0.85102 0.93609 0.05231 0.0
O23 O 0.07595 0.13565 0.93447 0.0
O24 O 0.88068 0.97902 0.9074 0.0
O25 O 0.83856 0.03293 0.07529 0.0
O26 O 0.87578 0.0769 0.92378 0.0
O27 O 0.03406 0.93933 0.07162 0.0
O28 O 0.96484 0.88536 0.07188 0.0
C29 C 0.15988 0.03959 0.11094 0.0
C30 C 0.99442 0.13768 0.07921 0.0
Mg31 Mg 1.00388 0.54115 0.49718 0.0
C32 C 0.98825 0.49134 0.35998 0.0
O33 O 0.9904 0.54683 0.34025 0.0
C34 C 0.92878 0.60115 0.58155 0.0
O35 O 0.92655 0.54874 0.60906 0.0
C36 C 0.98771 0.43951 0.57994 0.0
O37 O 0.95361 0.43443 0.53525 0.0
O38 O 0.01803 0.48287 0.5773 0.0
O39 O 0.98874 0.48034 0.41918 0.0
O40 O 0.062 0.60204 0.46916 0.0
C41 C 0.0868 0.59622 0.41858 0.0
O42 O 0.09101 0.54299 0.39309 0.0
O43 O 0.94851 0.60508 0.52711 0.0
Mg44 Mg 0.51126 0.99534 0.49748 0.0
C45 C 0.41139 0.01995 0.45203 0.0
O46 O 0.40954 0.96789 0.48022 0.0
C47 C 0.59922 0.00355 0.57368 0.0
O48 O 0.58093 0.94981 0.5811 0.0
C49 C 0.45412 0.90702 0.59293 0.0
O50 O 0.4499 0.86533 0.54927 0.0
O51 O 0.47683 0.9552 0.58055 0.0
O52 O 0.45234 0.04801 0.45247 0.0
O53 O 0.54106 0.94557 0.4172 0.0
C54 C 0.5784 0.91113 0.41643 0.0
O55 O 0.59717 0.89154 0.47028 0.0
O56 O 0.57535 0.04064 0.53937 0.0
H57 H 0.04322 0.14481 0.1939 0.0
H58 H 0.98569 0.49413 0.22928 0.0
H59 H 0.97991 0.25196 0.04377 0.0
H60 H 1.00538 0.37422 0.38806 0.0
H61 H 0.9995 0.41029 0.15666 0.0
H62 H 0.0488 0.23443 0.26124 0.0
C63 C 0.03197 0.18753 0.1746 0.0
C64 C 0.01075 0.19134 0.11373 0.0
C65 C 1.00087 0.40255 0.20746 0.0
C66 C 0.01613 0.29307 0.19001 0.0
C67 C 0.99272 0.45026 0.24887 0.0
C68 C 0.99378 0.44114 0.31483 0.0
C69 C 0.01073 0.34552 0.23224 0.0
C70 C 1.00362 0.38335 0.33756 0.0
C71 C 0.03453 0.23842 0.21311 0.0
C72 C 0.99611 0.24743 0.09087 0.0
N73 N 0.01173 0.33783 0.29638 0.0
N74 N 0.99865 0.29605 0.12919 0.0
H75 H 0.74725 0.04638 0.11194 0.0
H76 H 0.66048 0.84236 0.39393 0.0
H77 H 0.81057 0.87197 0.14173 0.0
H78 H 0.5641 0.97169 0.30474 0.0
H79 H 0.71696 0.85172 0.30422 0.0
H80 H 0.68127 0.02113 0.18564 0.0
C81 C 0.74711 0.00264 0.13372 0.0
C82 C 0.78455 0.9613 0.12081 0.0
C83 C 0.68299 0.87721 0.30391 0.0
C84 C 0.70945 0.93236 0.20586 0.0
C85 C 0.65068 0.87184 0.35504 0.0
C86 C 0.60763 0.90669 0.35734 0.0
C87 C 0.67261 0.91852 0.25543 0.0
C88 C 0.59691 0.94412 0.30541 0.0
C89 C 0.7093 0.98813 0.17553 0.0
C90 C 0.78234 0.90511 0.15019 0.0
N91 N 0.62958 0.94983 0.25725 0.0
N92 N 0.74583 0.89257 0.19209 0.0
H93 H 0.10342 0.85152 0.10409 0.0
H94 H 0.05732 0.71052 0.44336 0.0
H95 H 0.96145 0.85247 0.19499 0.0
H96 H 0.12987 0.60413 0.3008 0.0
H97 H 0.04665 0.79006 0.36546 0.0
H98 H 0.13502 0.78463 0.18849 0.0
C99 C 0.07916 0.8381 0.14205 0.0
C100 C 0.02969 0.85688 0.14258 0.0
C101 C 0.06594 0.74976 0.35191 0.0
C102 C 0.06581 0.78305 0.23921 0.0
C103 C 0.07236 0.70434 0.39632 0.0
C104 C 0.09362 0.64979 0.37828 0.0
C105 C 0.0818 0.7413 0.28945 0.0
C106 C 0.11267 0.64505 0.31655 0.0
C107 C 0.09715 0.80012 0.18982 0.0
C108 C 0.99965 0.83835 0.1926 0.0
N109 N 0.10578 0.69003 0.27389 0.0
N110 N 0.01828 0.80282 0.2392 0.0
H111 H 0.2217 0.13301 0.14007 0.0
H112 H 0.31738 0.9794 0.46102 0.0
H113 H 0.16413 0.96892 0.21663 0.0
H114 H 0.40651 0.10336 0.35532 0.0
H115 H 0.24955 0.99512 0.38599 0.0
H116 H 0.27814 0.14071 0.23191 0.0
C117 C 0.22022 0.09923 0.17675 0.0
C118 C 0.18845 0.04989 0.17041 0.0
C119 C 0.28369 0.01949 0.37953 0.0
C120 C 0.25268 0.05871 0.27532 0.0
C121 C 0.32249 0.0107 0.42245 0.0
C122 C 0.36805 0.03935 0.4138 0.0
C123 C 0.29024 0.05721 0.32724 0.0
C124 C 0.37212 0.08008 0.3635 0.0
C125 C 0.25264 0.10355 0.22887 0.0
C126 C 0.18831 0.00737 0.21922 0.0
N127 N 0.33384 0.08724 0.32144 0.0
N128 N 0.22007 0.01265 0.26939 0.0
H129 H 0.92387 0.85628 0.8967 0.0
H130 H 0.97424 0.70835 0.56153 0.0
H131 H 0.06988 0.84061 0.81841 0.0
H132 H 0.88219 0.61593 0.69575 0.0
H133 H 0.99068 0.78505 0.64159 0.0
H134 H 0.89172 0.7923 0.8102 0.0
C135 C 0.94905 0.83956 0.86129 0.0
C136 C 0.99968 0.85311 0.8649 0.0
C137 C 0.966 0.74859 0.65279 0.0
C138 C 0.963 0.78247 0.76555 0.0
C139 C 0.95615 0.70502 0.60705 0.0
C140 C 0.92722 0.65508 0.62223 0.0
C141 C 0.94595 0.74301 0.71358 0.0
C142 C 0.90504 0.65338 0.6823 0.0
C143 C 0.93069 0.80328 0.8122 0.0
C144 C 0.03074 0.83052 0.81779 0.0
N145 N 0.91517 0.69654 0.72617 0.0
N146 N 0.01183 0.79673 0.76971 0.0
H147 H 0.27661 0.04964 0.88571 0.0
H148 H 0.3799 0.82836 0.62524 0.0
H149 H 0.22165 0.8696 0.86832 0.0
H150 H 0.45963 0.98272 0.69418 0.0
H151 H 0.32201 0.83955 0.71357 0.0
H152 H 0.34359 0.02465 0.81405 0.0
C153 C 0.27879 0.00469 0.86702 0.0
C154 C 0.24335 0.96174 0.88284 0.0
C155 C 0.35269 0.87031 0.70973 0.0
C156 C 0.31993 0.93281 0.79997 0.0
C157 C 0.38584 0.86383 0.65948 0.0
C158 C 0.42431 0.90516 0.65165 0.0
C159 C 0.35794 0.91871 0.75187 0.0
C160 C 0.43014 0.95028 0.69756 0.0
C161 C 0.31722 0.99032 0.82628 0.0
C162 C 0.24828 0.90404 0.85746 0.0
N163 N 0.39699 0.95629 0.74498 0.0
N164 N 0.28552 0.89141 0.81655 0.0
H165 H 0.06236 0.2477 0.92112 0.0
H166 H 0.93059 0.34013 0.59461 0.0
H167 H 0.95947 0.13314 0.82098 0.0
H168 H 0.04588 0.44236 0.68754 0.0
H169 H 0.93215 0.26984 0.68316 0.0
H170 H 0.04612 0.32616 0.84405 0.0
C171 C 0.03587 0.23932 0.8831 0.0
C172 C 0.01294 0.18348 0.87656 0.0
C173 C 0.95694 0.30776 0.68428 0.0
C174 C 0.99461 0.27308 0.78753 0.0
C175 C 0.95622 0.34789 0.6337 0.0
C176 C 0.9885 0.39699 0.63346 0.0
C177 C 0.99009 0.31686 0.73512 0.0
C178 C 0.02066 0.40491 0.68548 0.0
C179 C 0.02671 0.28414 0.83901 0.0
C180 C 0.97819 0.17546 0.82733 0.0
N181 N 0.02072 0.36513 0.73411 0.0
N182 N 0.97059 0.21961 0.78393 0.0
H183 H 0.81506 0.12796 0.84564 0.0
H184 H 0.67623 0.9286 0.58653 0.0
H185 H 0.85646 0.94848 0.79443 0.0
H186 H 0.63169 0.10868 0.6289 0.0
H187 H 0.75092 0.94299 0.64994 0.0
H188 H 0.75684 0.12957 0.75548 0.0
C189 C 0.81265 0.08931 0.81481 0.0
C190 C 0.84008 0.03755 0.82837 0.0
C191 C 0.72532 0.97984 0.64507 0.0
C192 C 0.77343 0.03913 0.72544 0.0
C193 C 0.6826 0.97158 0.6088 0.0
C194 C 0.64757 0.01729 0.60326 0.0
C195 C 0.73285 0.03391 0.67745 0.0
C196 C 0.65787 0.07232 0.63228 0.0
C197 C 0.77927 0.09026 0.76345 0.0
C198 C 0.83554 0.989 0.78659 0.0
N199 N 0.6993 0.07883 0.66928 0.0
N200 N 0.80248 0.99079 0.73762 0.0
loop_
_geom_bond_atom_site_label_1
_geom_bond_atom_site_label_2
_geom_bond_distance
_geom_bond_site_symmetry_2
_ccdc_geom_bond_type
C0 O27 1.312 1_655 S
C0 O28 1.208 . S
C1 O22 1.331 . S
C1 O25 1.244 1_565 S
C2 O24 1.264 1_545 S
C2 O26 1.273 . S
Mg3 O5 1.936 1_565 S
Mg3 O12 2.081 . S
Mg3 O14 2.023 1_556 S
Mg3 O18 2.031 . S
Mg3 O27 2.291 1_556 S
Mg4 O5 1.963 . S
Mg4 O15 1.942 . S
Mg4 O16 1.955 1_556 S
Mg4 O23 1.986 . S
O5 Mg3 1.936 1_545 S
O5 Mg4 1.963 . S
O5 Mg6 1.912 1_556 S
Mg6 O5 1.912 1_554 S
Mg6 O7 1.918 1_455 S
Mg6 O11 2.020 . S
Mg6 O17 2.108 1_444 S
Mg6 O21 2.006 1_454 S
Mg6 O27 2.119 1_545 S
O7 Mg6 1.918 1_655 S
O7 Mg8 1.936 1_545 S
O7 Mg9 1.963 . S
Mg8 O7 1.936 1_565 S
Mg8 O17 2.291 1_554 S
Mg8 O22 2.081 . S
Mg8 O24 2.023 1_554 S
Mg8 O28 2.031 . S
Mg9 O7 1.963 . S
Mg9 O13 1.986 . S
Mg9 O25 1.942 . S
Mg9 O26 1.955 1_554 S
C10 O21 1.191 1_455 S
C10 O23 1.307 . S
O11 Mg6 2.020 . S
O11 C30 1.191 1_455 S
O12 Mg3 2.081 . S
O12 C20 1.331 . S
O13 Mg9 1.986 . S
O13 C30 1.307 . S
O14 Mg3 2.023 1_554 S
O14 C29 1.264 1_565 S
O15 Mg4 1.942 . S
O15 C20 1.244 1_545 S
O16 Mg4 1.955 1_554 S
O16 C29 1.273 . S
O17 Mg6 2.108 1_666 S
O17 Mg8 2.291 1_556 S
O17 C19 1.312 1_655 S
O18 Mg3 2.031 . S
O18 C19 1.208 . S
C19 O17 1.312 1_455 S
C19 O18 1.208 . S
C20 O12 1.331 . S
C20 O15 1.244 1_565 S
O21 Mg6 2.006 1_656 S
O21 C10 1.191 1_655 S
O22 C1 1.331 . S
O22 Mg8 2.081 . S
O23 Mg4 1.986 . S
O23 C10 1.307 . S
O24 C2 1.264 1_565 S
O24 Mg8 2.023 1_556 S
O25 C1 1.244 1_545 S
O25 Mg9 1.942 . S
O26 C2 1.273 . S
O26 Mg9 1.955 1_556 S
O27 C0 1.312 1_455 S
O27 Mg3 2.291 1_554 S
O27 Mg6 2.119 1_565 S
O28 C0 1.208 . S
O28 Mg8 2.031 . S
C29 O14 1.264 1_545 S
C29 O16 1.273 . S
C30 O11 1.191 1_655 S
C30 O13 1.307 . S
Mg31 O38 2.141 . S
Mg31 O39 2.048 . S
Mg31 O40 2.048 . S
Mg31 O43 2.141 . S
C32 O33 1.313 . S
C32 O39 1.195 1_455 S
O33 C32 1.313 . S
C34 O35 1.245 . S
C34 O43 1.289 1_455 S
O35 C34 1.245 . S
C36 O37 1.245 . S
C36 O38 1.289 1_455 S
O37 C36 1.245 . S
O38 Mg31 2.141 . S
O38 C36 1.289 1_655 S
O39 Mg31 2.048 . S
O39 C32 1.195 1_655 S
O40 Mg31 2.048 . S
O40 C41 1.195 1_655 S
C41 O40 1.195 1_455 S
C41 O42 1.313 . S
O42 C41 1.313 . S
O43 Mg31 2.141 . S
O43 C34 1.289 1_655 S
Mg44 O51 2.141 . S
Mg44 O52 2.048 . S
Mg44 O53 2.048 . S
Mg44 O56 2.141 . S
C45 O46 1.313 . S
C45 O52 1.195 1_565 S
O46 C45 1.313 . S
C47 O48 1.245 . S
C47 O56 1.289 1_565 S
O48 C47 1.245 . S
C49 O50 1.245 . S
C49 O51 1.289 1_565 S
O50 C49 1.245 . S
O51 Mg44 2.141 . S
O51 C49 1.289 1_545 S
O52 Mg44 2.048 . S
O52 C45 1.195 1_545 S
O53 Mg44 2.048 . S
O53 C54 1.195 1_545 S
C54 O53 1.195 1_565 S
C54 O55 1.313 . S
O55 C54 1.313 . S
O56 Mg44 2.141 . S
O56 C47 1.289 1_545 S
H57 C63 0.930 . S
H58 C67 0.930 . S
H59 C72 0.929 . S
H60 C70 0.929 . S
H61 C65 0.929 . S
H62 C71 0.929 . S
C63 H57 0.930 . S
C63 C64 1.358 1_655 S
C63 C71 1.378 . S
C64 C63 1.358 1_455 S
C64 C72 1.442 . S
C65 H61 0.929 . S
C65 C67 1.378 . S
C65 C69 1.350 . S
C66 C69 1.463 . S
C66 C71 1.341 1_455 S
C66 N74 1.437 . S
C67 H58 0.930 . S
C67 C65 1.378 . S
C67 C68 1.367 . S
C68 C67 1.367 . S
C68 C70 1.433 1_455 S
C69 C65 1.350 . S
C69 C66 1.463 . S
C69 N73 1.427 1_455 S
C70 H60 0.929 . S
C70 C68 1.433 1_655 S
C70 N73 1.384 . S
C71 H62 0.929 . S
C71 C63 1.378 . S
C71 C66 1.341 1_655 S
C72 H59 0.929 . S
C72 C64 1.442 . S
C72 N74 1.384 . S
N73 C69 1.427 1_655 S
N73 C70 1.384 . S
N74 C66 1.437 . S
N74 C72 1.384 . S
H75 C81 0.930 . S
H76 C85 0.930 . S
H77 C90 0.929 . S
H78 C88 0.929 . S
H79 C83 0.929 . S
H80 C89 0.929 . S
C81 H75 0.930 . S
C81 C82 1.367 1_545 S
C81 C89 1.378 . S
C82 C81 1.367 1_565 S
C82 C90 1.433 . S
C83 H79 0.929 . S
C83 C85 1.378 . S
C83 C87 1.350 . S
C84 C87 1.463 . S
C84 C89 1.350 1_565 S
C84 N92 1.427 . S
C85 H76 0.930 . S
C85 C83 1.378 . S
C85 C86 1.367 1_565 S
C86 C85 1.367 1_545 S
C86 C88 1.433 . S
C87 C83 1.350 . S
C87 C84 1.463 . S
C87 N91 1.427 1_565 S
C88 H78 0.929 . S
C88 C86 1.433 . S
C88 N91 1.384 . S
C89 H80 0.929 . S
C89 C81 1.378 . S
C89 C84 1.350 1_545 S
C90 H77 0.929 . S
C90 C82 1.433 . S
C90 N92 1.384 . S
N91 C87 1.427 1_545 S
N91 C88 1.384 . S
N92 C84 1.427 . S
N92 C90 1.384 . S
H93 C99 0.930 . S
H94 C103 0.930 . S
H95 C108 0.929 . S
H96 C106 0.929 . S
H97 C101 0.929 . S
H98 C107 0.929 . S
C99 H93 0.930 . S
C99 C100 1.367 . S
C99 C107 1.378 . S
C100 C99 1.367 . S
C100 C108 1.433 1_455 S
C101 H97 0.929 . S
C101 C103 1.378 . S
C101 C105 1.350 1_655 S
C102 C105 1.463 . S
C102 C107 1.350 . S
C102 N110 1.427 1_455 S
C103 H94 0.930 . S
C103 C101 1.378 . S
C103 C104 1.367 1_655 S
C104 C103 1.367 1_455 S
C104 C106 1.433 . S
C105 C101 1.350 1_455 S
C105 C102 1.463 . S
C105 N109 1.427 . S
C106 H96 0.929 . S
C106 C104 1.433 . S
C106 N109 1.384 . S
C107 H98 0.929 . S
C107 C99 1.378 . S
C107 C102 1.350 . S
C108 H95 0.929 . S
C108 C100 1.433 1_655 S
C108 N110 1.384 . S
N109 C105 1.427 . S
N109 C106 1.384 . S
N110 C102 1.427 1_655 S
N110 C108 1.384 . S
H111 C117 0.930 . S
H112 C121 0.930 . S
H113 C126 0.929 . S
H114 C124 0.929 . S
H115 C119 0.929 . S
H116 C125 0.929 . S
C117 H111 0.930 . S
C117 C118 1.367 . S
C117 C125 1.378 . S
C118 C117 1.367 . S
C118 C126 1.433 1_545 S
C119 H115 0.929 . S
C119 C121 1.378 . S
C119 C123 1.350 1_565 S
C120 C123 1.463 . S
C120 C125 1.350 . S
C120 N128 1.427 1_545 S
C121 H112 0.930 . S
C121 C119 1.378 . S
C121 C122 1.367 1_565 S
C122 C121 1.367 1_545 S
C122 C124 1.433 . S
C123 C119 1.350 1_545 S
C123 C120 1.463 . S
C123 N127 1.427 . S
C124 H114 0.929 . S
C124 C122 1.433 . S
C124 N127 1.384 . S
C125 H116 0.929 . S
C125 C117 1.378 . S
C125 C120 1.350 . S
C126 H113 0.929 . S
C126 C118 1.433 1_565 S
C126 N128 1.384 . S
N127 C123 1.427 . S
N127 C124 1.384 . S
N128 C120 1.427 1_565 S
N128 C126 1.384 . S
H129 C135 0.930 . S
H130 C139 0.930 . S
H131 C144 0.929 . S
H132 C142 0.929 . S
H133 C137 0.929 . S
H134 C143 0.929 . S
C135 H129 0.930 . S
C135 C136 1.367 . S
C135 C143 1.378 . S
C136 C135 1.367 . S
C136 C144 1.433 1_655 S
C137 H133 0.929 . S
C137 C139 1.378 . S
C137 C141 1.350 . S
C138 C141 1.461 1_655 S
C138 C143 1.365 . S
C138 N146 1.412 1_655 S
C139 H130 0.930 . S
C139 C137 1.378 . S
C139 C140 1.367 . S
C140 C139 1.367 . S
C140 C142 1.433 1_455 S
C141 C137 1.350 . S
C141 C138 1.461 1_455 S
C141 N145 1.427 1_455 S
C142 H132 0.929 . S
C142 C140 1.433 1_655 S
C142 N145 1.384 . S
C143 H134 0.929 . S
C143 C135 1.378 . S
C143 C138 1.365 . S
C144 H131 0.929 . S
C144 C136 1.433 1_455 S
C144 N146 1.384 . S
N145 C141 1.427 1_655 S
N145 C142 1.384 . S
N146 C138 1.412 1_455 S
N146 C144 1.384 . S
H147 C153 0.930 . S
H148 C157 0.930 . S
H149 C162 0.929 . S
H150 C160 0.929 . S
H151 C155 0.929 . S
H152 C161 0.929 . S
C153 H147 0.930 . S
C153 C154 1.367 1_545 S
C153 C161 1.378 . S
C154 C153 1.367 1_565 S
C154 C162 1.433 . S
C155 H151 0.929 . S
C155 C157 1.378 . S
C155 C159 1.350 . S
C156 C159 1.463 . S
C156 C161 1.350 1_565 S
C156 N164 1.427 . S
C157 H148 0.930 . S
C157 C155 1.378 . S
C157 C158 1.367 1_565 S
C158 C157 1.367 1_545 S
C158 C160 1.433 . S
C159 C155 1.350 . S
C159 C156 1.463 . S
C159 N163 1.427 1_565 S
C160 H150 0.929 . S
C160 C158 1.433 . S
C160 N163 1.384 . S
C161 H152 0.929 . S
C161 C153 1.378 . S
C161 C156 1.350 1_545 S
C162 H149 0.929 . S
C162 C154 1.433 . S
C162 N164 1.384 . S
N163 C159 1.427 1_545 S
N163 C160 1.384 . S
N164 C156 1.427 . S
N164 C162 1.384 . S
H165 C171 0.930 . S
H166 C175 0.930 . S
H167 C180 0.929 . S
H168 C178 0.929 . S
H169 C173 0.929 . S
H170 C179 0.929 . S
C171 H165 0.930 . S
C171 C172 1.367 1_655 S
C171 C179 1.378 . S
C172 C171 1.367 1_455 S
C172 C180 1.433 . S
C173 H169 0.929 . S
C173 C175 1.378 . S
C173 C177 1.350 . S
C174 C177 1.463 . S
C174 C179 1.350 1_455 S
C174 N182 1.427 . S
C175 H166 0.930 . S
C175 C173 1.378 . S
C175 C176 1.367 . S
C176 C175 1.367 . S
C176 C178 1.433 1_455 S
C177 C173 1.350 . S
C177 C174 1.463 . S
C177 N181 1.427 1_455 S
C178 H168 0.929 . S
C178 C176 1.433 1_655 S
C178 N181 1.384 . S
C179 H170 0.929 . S
C179 C171 1.378 . S
C179 C174 1.350 1_655 S
C180 H167 0.929 . S
C180 C172 1.433 . S
C180 N182 1.384 . S
N181 C177 1.427 1_655 S
N181 C178 1.384 . S
N182 C174 1.427 . S
N182 C180 1.384 . S
H183 C189 0.930 . S
H184 C193 0.930 . S
H185 C198 0.929 . S
H186 C196 0.929 . S
H187 C191 0.929 . S
H188 C197 0.929 . S
C189 H183 0.930 . S
C189 C190 1.367 . S
C189 C197 1.378 . S
C190 C189 1.367 . S
C190 C198 1.433 1_545 S
C191 H187 0.929 . S
C191 C193 1.378 . S
C191 C195 1.350 1_565 S
C192 C195 1.463 . S
C192 C197 1.350 . S
C192 N200 1.427 1_545 S
C193 H184 0.930 . S
C193 C191 1.378 . S
C193 C194 1.367 1_565 S
C194 C193 1.367 1_545 S
C194 C196 1.433 . S
C195 C191 1.350 1_545 S
C195 C192 1.463 . S
C195 N199 1.427 . S
C196 H186 0.929 . S
C196 C194 1.433 . S
C196 N199 1.384 . S
C197 H188 0.929 . S
C197 C189 1.378 . S
C197 C192 1.350 . S
C198 H185 0.929 . S
C198 C190 1.433 1_565 S
C198 N200 1.384 . S
N199 C195 1.427 . S
N199 C196 1.384 . S
N200 C192 1.427 1_565 S
N200 C198 1.384 . S
C64 C30 1.344 1_455 S
C68 C32 1.374 . S
C82 C1 1.518 . S
C86 C54 1.539 1_545 S
C100 C0 1.341 1_455 S
C104 C41 1.392 . S
C118 C29 1.556 . S
C122 C45 1.584 1_545 S
C136 C19 1.291 1_655 S
C140 C34 1.321 . S
C154 C20 1.447 . S
C158 C49 1.459 1_545 S
C176 C36 1.306 . S
C172 C10 1.286 . S
C190 C2 1.485 . S
C194 C47 1.503 1_545 S
