# Generated by pormake.
# Topology pts, (4,4)-cn, num edge types: 1
# Building blocks:
#     Node 0, Type 0, BuildingBlock: ESEHIV_clean_sbu_0, # of connection points: 4
#     Node 1, Type 0, BuildingBlock: ESEHIV_clean_sbu_0, # of connection points: 4
#     Node 2, Type 1, BuildingBlock: QUQFOY_clean_sbu_1, # of connection points: 4
#     Node 3, Type 1, BuildingBlock: QUQFOY_clean_sbu_1, # of connection points: 4
#     Edge 4, Type (0, 1), BuildingBlock: EZIPEK_clean_linker_0, # of connection points: 2
#     Edge 5, Type (0, 1), BuildingBlock: EZIPEK_clean_linker_0, # of connection points: 2
#     Edge 6, Type (0, 1), BuildingBlock: EZIPEK_clean_linker_0, # of connection points: 2
#     Edge 7, Type (0, 1), BuildingBlock: EZIPEK_clean_linker_0, # of connection points: 2
#     Edge 8, Type (0, 1), BuildingBlock: EZIPEK_clean_linker_0, # of connection points: 2
#     Edge 9, Type (0, 1), BuildingBlock: EZIPEK_clean_linker_0, # of connection points: 2
#     Edge 10, Type (0, 1), BuildingBlock: EZIPEK_clean_linker_0, # of connection points: 2
#     Edge 11, Type (0, 1), BuildingBlock: EZIPEK_clean_linker_0, # of connection points: 2
# Relax obj value: 0.096
# Max RMSD: 0.249
# Mean RMSD: 0.176
data_MOF--net-pts--node1-ESEHIV_clean_sbu_0--node2-QUQFOY_clean_sbu_1--edge1-EZIPEK_clean_linker_0
_symmetry_space_group_name_H-M    P1
_symmetry_Int_Tables_number       1
_symmetry_cell_setting            triclinic
loop_
_symmetry_equiv_pos_as_xyz
'x, y, z'
_cell_length_a     17.451551
_cell_length_b     18.308575
_cell_length_c     29.929495
_cell_angle_alpha  94.831791
_cell_angle_beta   95.184344
_cell_angle_gamma 89.273485
loop_
_atom_site_label
_atom_site_type_symbol
_atom_site_fract_x
_atom_site_fract_y
_atom_site_fract_z
_atom_type_partial_charge
Cu0 Cu 0.58495 0.16437 0.02184 0.0
N1 N 0.64563 0.21866 0.9888 0.0
N2 N 0.72513 0.23542 0.93648 0.0
C3 C 0.67784 0.18867 0.95244 0.0
C4 C 0.72081 0.29872 0.96271 0.0
C5 C 0.67053 0.28847 0.99487 0.0
O6 O 0.64885 0.09648 0.05665 0.0
C7 C 0.44991 0.08447 0.97724 0.0
O8 O 0.44106 1.05096 0.0135 0.0
H9 H 0.67076 0.13181 0.93967 0.0
H10 H 0.65687 0.32748 0.02222 0.0
N11 N 0.5401 0.22129 0.0672 0.0
N12 N 0.46931 0.22695 0.12612 0.0
C13 C 0.47251 0.20474 0.08223 0.0
C14 C 0.58048 0.25678 0.10284 0.0
C15 C 0.53705 0.26014 0.13929 0.0
C16 C 0.71895 0.08137 0.05113 0.0
O17 O 0.74457 0.0881 0.01187 0.0
H18 H 0.43081 0.16824 0.06363 0.0
H19 H 0.64079 0.27034 0.10397 0.0
O20 O 0.50651 0.12672 0.976 0.0
H21 H 0.7553 0.34683 0.96062 0.0
H22 H 0.55631 0.27926 0.17363 0.0
Cu23 Cu 0.05424 0.62178 0.50988 0.0
N24 N 0.99972 0.56608 0.5458 0.0
N25 N 0.98477 0.48819 0.59793 0.0
C26 C 0.03473 0.52738 0.5781 0.0
C27 C 0.91455 0.50507 0.57858 0.0
C28 C 0.92402 0.55303 0.54612 0.0
O29 O 0.10851 0.55487 0.46906 0.0
C30 C 0.06373 0.73695 0.57179 0.0
O31 O 0.98946 0.72528 0.5637 0.0
H32 H 0.09625 0.52737 0.58681 0.0
H33 H 0.87916 0.57571 0.52398 0.0
N34 N 0.99395 0.67647 0.47023 0.0
N35 N 0.97934 0.75665 0.4179 0.0
C36 C 0.02298 0.7354 0.4539 0.0
C37 C 0.92932 0.65942 0.44349 0.0
C38 C 0.91997 0.70933 0.41107 0.0
C39 C 0.13241 0.4905 0.47612 0.0
O40 O 0.14466 0.47114 0.51733 0.0
H41 H 0.07888 0.75816 0.46561 0.0
H42 H 0.89518 0.61098 0.44504 0.0
O43 O 0.11024 0.69505 0.5509 0.0
H44 H 0.86076 0.4825 0.58637 0.0
H45 H 0.87624 0.70801 0.38296 0.0
O46 O 0.01022 0.05516 0.19969 0.0
Cd47 Cd 0.09797 1.05093 0.2505 0.0
Cd48 Cd 0.07072 0.19319 0.25867 0.0
O49 O 0.96581 0.16245 0.22512 0.0
O50 O 0.0983 0.94716 0.26577 0.0
O51 O 0.06784 1.04078 0.3129 0.0
C52 C 0.07374 0.97073 0.30381 0.0
C53 C 0.08356 0.27491 0.32296 0.0
C54 C 0.95833 0.10431 0.19871 0.0
C55 C 0.21656 0.14433 0.22082 0.0
O56 O 0.16359 0.19257 0.22091 0.0
O57 O 0.20704 0.08384 0.23766 0.0
O58 O 0.06092 0.29703 0.28413 0.0
O59 O 0.09492 0.20548 0.3258 0.0
O60 O 1.00114 0.19323 0.81564 0.0
Cd61 Cd 0.09487 0.1916 0.77926 0.0
Cd62 Cd 0.06825 1.04754 0.7767 0.0
O63 O 0.96319 0.07878 0.79979 0.0
O64 O 0.09453 0.29632 0.76543 0.0
O65 O 0.07993 0.2043 0.71282 0.0
C66 C 0.07925 0.27416 0.72358 0.0
C67 C 0.07983 0.96735 0.71306 0.0
C68 C 0.95243 0.14323 0.81753 0.0
C69 C 0.20832 0.10494 0.83299 0.0
O70 O 0.16053 1.05279 0.82457 0.0
O71 O 0.19787 0.16474 0.81425 0.0
O72 O 0.06176 0.94402 0.75022 0.0
O73 O 0.08974 1.03698 0.71168 0.0
C74 C 0.39303 0.1291 0.15333 0.0
C75 C 0.41308 0.20417 0.15465 0.0
C76 C 0.32142 0.23234 0.21076 0.0
C77 C 0.28952 0.16101 0.20151 0.0
N78 N 0.29007 1.04383 0.15721 0.0
N79 N 0.38838 0.32957 0.18088 0.0
C80 C 0.32426 0.10951 0.17122 0.0
C81 C 0.37541 0.25657 0.18259 0.0
N82 N 0.44083 0.0764 0.13625 0.0
N83 N 0.30229 0.27593 0.24739 0.0
H84 H 0.42535 0.34948 0.15933 0.0
H85 H 0.3567 0.37016 0.19765 0.0
H86 H 0.26785 0.25732 0.27075 0.0
H87 H 0.32834 0.32633 0.25745 0.0
H88 H 0.43162 1.02051 0.13772 0.0
H89 H 0.49428 0.08876 0.12586 0.0
H90 H 0.31021 1.00816 0.13182 0.0
H91 H 0.23757 1.02814 0.16725 0.0
C92 C 0.97959 0.36134 0.62164 0.0
C93 C 0.00537 0.43475 0.62998 0.0
C94 C 0.0911 0.39822 0.69373 0.0
C95 C 0.05627 0.32787 0.68978 0.0
N96 N 0.9492 0.25236 0.65613 0.0
N97 N 0.07242 0.52622 0.68099 0.0
C98 C 0.99535 0.31191 0.65545 0.0
C99 C 0.05717 0.45417 0.66824 0.0
N100 N 0.94315 0.3374 0.58088 0.0
N101 N 0.15838 0.41108 0.7201 0.0
H102 H 0.04518 0.56866 0.66444 0.0
H103 H 0.1051 0.54354 0.71081 0.0
H104 H 0.18867 0.37013 0.73648 0.0
H105 H 0.18874 0.45995 0.72106 0.0
H106 H 0.92947 0.28244 0.5722 0.0
H107 H 0.93501 0.37026 0.55408 0.0
H108 H 0.90056 0.24283 0.63354 0.0
H109 H 0.95292 0.218 0.68224 0.0
C110 C 0.82027 0.15203 0.10031 0.0
C111 C 0.77563 0.08733 0.09143 0.0
C112 C 0.843 1.03768 0.15798 0.0
C113 C 0.8942 0.09828 0.16259 0.0
N114 N 0.94154 0.20459 0.13111 0.0
N115 N 0.74652 0.96598 0.10991 0.0
C116 C 0.88556 0.15317 0.13188 0.0
C117 C 0.78732 1.02932 0.11986 0.0
N118 N 0.79851 0.21383 0.07993 0.0
N119 N 0.84607 0.98966 0.19067 0.0
H120 H 0.70418 0.95936 0.08295 0.0
H121 H 0.75783 0.9187 0.12645 0.0
H122 H 0.88548 0.99478 0.21911 0.0
H123 H 0.80577 0.94849 0.19157 0.0
H124 H 0.82462 0.26458 0.08854 0.0
H125 H 0.74877 0.21616 0.05828 0.0
H126 H 0.94139 0.24074 0.10599 0.0
H127 H 0.99228 0.20624 0.15241 0.0
C128 C 0.05481 0.87006 0.59485 0.0
C129 C 0.08867 0.80111 0.60314 0.0
C130 C 0.13695 0.85158 0.67869 0.0
C131 C 0.08942 0.91452 0.6734 0.0
N132 N 0.99669 0.98062 0.62682 0.0
N133 N 0.15984 0.72425 0.654 0.0
C134 C 0.04762 0.92377 0.63132 0.0
C135 C 0.13041 0.79153 0.64511 0.0
N136 N 0.02907 0.88385 0.55191 0.0
N137 N 0.18933 0.84984 0.7154 0.0
H138 H 0.15746 0.67937 0.63007 0.0
H139 H 0.1823 0.71184 0.68593 0.0
H140 H 0.19721 0.89379 0.7399 0.0
H141 H 0.23022 0.80832 0.71907 0.0
H142 H 0.01023 0.93529 0.54296 0.0
H143 H 0.0346 0.84564 0.52454 0.0
H144 H 0.95852 0.98492 0.59832 0.0
H145 H 0.98713 1.02012 0.65287 0.0
C146 C 0.37796 1.03062 0.90566 0.0
C147 C 0.38626 0.08717 0.94112 0.0
C148 C 0.27362 0.15066 0.90765 0.0
C149 C 0.27078 0.09908 0.86949 0.0
N150 N 0.32591 0.99471 0.82902 0.0
N151 N 0.35159 0.20903 0.97083 0.0
C152 C 0.32432 1.03997 0.86767 0.0
C153 C 0.33704 0.14959 0.9406 0.0
N154 N 0.42131 0.9682 0.90832 0.0
N155 N 0.21379 0.19838 0.91385 0.0
H156 H 0.39746 0.2114 0.99557 0.0
H157 H 0.3225 0.25882 0.96852 0.0
H158 H 0.1644 0.19951 0.89154 0.0
H159 H 0.20932 0.23144 0.9436 0.0
H160 H 0.41267 0.92186 0.88584 0.0
H161 H 0.46238 0.96073 0.93515 0.0
H162 H 0.36829 0.95512 0.82393 0.0
H163 H 0.28848 1.00087 0.80036 0.0
C164 C 0.062 0.38172 0.43614 0.0
C165 C 0.12329 0.43277 0.43815 0.0
C166 C 0.15574 0.38306 0.36349 0.0
C167 C 0.09806 0.32847 0.36296 0.0
N168 N 1.00228 0.27001 0.40099 0.0
N169 N 0.23514 0.47625 0.40743 0.0
C170 C 0.05357 0.32565 0.40017 0.0
C171 C 0.17196 0.43189 0.40277 0.0
N172 N 0.0086 0.38963 0.46701 0.0
N173 N 0.19467 0.38881 0.3263 0.0
H174 H 0.24819 0.51283 0.43568 0.0
H175 H 0.27797 0.47288 0.38529 0.0
H176 H 0.18781 0.35221 0.29772 0.0
H177 H 0.23036 0.43254 0.32247 0.0
H178 H 0.95764 0.35998 0.46426 0.0
H179 H 0.01127 0.43047 0.49348 0.0
H180 H 0.97608 0.25934 0.42965 0.0
H181 H 0.98902 0.23142 0.37385 0.0
C182 C 0.85292 0.18387 0.92359 0.0
C183 C 0.78231 0.2139 0.9062 0.0
C184 C 0.82022 0.192 0.8293 0.0
C185 C 0.88948 0.1592 0.84666 0.0
N186 N 0.96812 0.11363 0.90881 0.0
N187 N 0.69283 0.23872 0.84368 0.0
C188 C 0.90462 0.15191 0.89343 0.0
C189 C 0.76424 0.21562 0.85927 0.0
N190 N 0.87085 0.18751 0.96911 0.0
N191 N 0.80914 0.2021 0.78443 0.0
H192 H 0.65212 0.25838 0.86529 0.0
H193 H 0.67235 0.23478 0.80982 0.0
H194 H 0.84778 0.18265 0.76148 0.0
H195 H 0.76387 0.23248 0.7702 0.0
H196 H 0.92436 0.17361 0.98439 0.0
H197 H 0.83352 0.20967 0.99196 0.0
H198 H 0.97885 0.09998 0.94184 0.0
H199 H 0.00774 0.09021 0.88766 0.0
C200 C 0.06916 0.79874 0.36632 0.0
C201 C 1.00097 0.80964 0.38836 0.0
C202 C 0.97684 0.92429 0.35265 0.0
C203 C 0.05005 0.91778 0.33505 0.0
N204 N 0.17309 0.85589 0.33418 0.0
N205 N 0.89683 0.88845 0.40927 0.0
C206 C 0.09833 0.85692 0.34444 0.0
C207 C 0.9568 0.8742 0.38352 0.0
N208 N 0.1046 0.73178 0.36499 0.0
N209 N 0.92451 0.97522 0.33808 0.0
H210 H 0.88113 0.85266 0.43217 0.0
H211 H 0.86735 0.93834 0.41073 0.0
H212 H 0.93463 1.01058 0.31377 0.0
H213 H 0.86794 0.97722 0.34665 0.0
H214 H 0.15058 0.71857 0.34585 0.0
H215 H 0.08269 0.68709 0.37906 0.0
H216 H 0.21261 0.81591 0.34411 0.0
H217 H 0.19794 0.89915 0.32021 0.0
loop_
_geom_bond_atom_site_label_1
_geom_bond_atom_site_label_2
_geom_bond_distance
_geom_bond_site_symmetry_2
_ccdc_geom_bond_type
Cu0 N1 1.999 1_554 S
Cu0 O6 1.974 . S
Cu0 N11 1.985 . S
Cu0 O20 1.959 1_554 S
N1 Cu0 1.999 1_556 S
N1 C3 1.263 . S
N1 C5 1.389 . S
N2 C3 1.358 . S
N2 C4 1.400 . S
C3 N1 1.263 . S
C3 N2 1.358 . S
C3 H9 0.930 . S
C4 N2 1.400 . S
C4 C5 1.351 . S
C4 H21 0.930 . S
C5 N1 1.389 . S
C5 C4 1.351 . S
C5 H10 0.930 . S
O6 Cu0 1.974 . S
O6 C16 1.282 . S
C7 O8 1.261 . S
C7 O20 1.251 . S
O8 C7 1.261 . S
H9 C3 0.930 . S
H10 C5 0.930 . S
N11 Cu0 1.985 . S
N11 C13 1.335 . S
N11 C14 1.390 . S
N12 C13 1.345 . S
N12 C15 1.336 . S
C13 N11 1.335 . S
C13 N12 1.345 . S
C13 H18 0.930 . S
C14 N11 1.390 . S
C14 C15 1.346 . S
C14 H19 0.930 . S
C15 N12 1.336 . S
C15 C14 1.346 . S
C15 H22 0.929 . S
C16 O6 1.282 . S
C16 O17 1.216 . S
O17 C16 1.216 . S
H18 C13 0.930 . S
H19 C14 0.930 . S
O20 Cu0 1.959 1_556 S
O20 C7 1.251 . S
H21 C4 0.930 . S
H22 C15 0.929 . S
Cu23 N24 1.999 . S
Cu23 O29 1.974 . S
Cu23 N34 1.985 . S
Cu23 O43 1.959 . S
N24 Cu23 1.999 . S
N24 C26 1.263 . S
N24 C28 1.389 1_455 S
N25 C26 1.358 . S
N25 C27 1.400 1_455 S
C26 N24 1.263 . S
C26 N25 1.358 . S
C26 H32 0.930 . S
C27 N25 1.400 1_655 S
C27 C28 1.351 . S
C27 H44 0.930 . S
C28 N24 1.389 1_655 S
C28 C27 1.351 . S
C28 H33 0.930 . S
O29 Cu23 1.974 . S
O29 C39 1.282 . S
C30 O31 1.261 . S
C30 O43 1.251 . S
O31 C30 1.261 . S
H32 C26 0.930 . S
H33 C28 0.930 . S
N34 Cu23 1.985 . S
N34 C36 1.335 . S
N34 C37 1.390 . S
N35 C36 1.345 . S
N35 C38 1.336 . S
C36 N34 1.335 . S
C36 N35 1.345 . S
C36 H41 0.930 1_455 S
C37 N34 1.390 . S
C37 C38 1.346 . S
C37 H42 0.930 . S
C38 N35 1.336 . S
C38 C37 1.346 . S
C38 H45 0.929 . S
C39 O29 1.282 . S
C39 O40 1.216 . S
O40 C39 1.216 . S
H41 C36 0.930 1_655 S
H42 C37 0.930 . S
O43 Cu23 1.959 . S
O43 C30 1.251 . S
H44 C27 0.930 . S
H45 C38 0.929 . S
O46 Cd47 2.223 . S
O46 C54 1.315 1_465 S
Cd47 O46 2.223 . S
Cd47 O50 2.297 . S
Cd47 O51 2.439 1_565 S
Cd47 O57 2.240 1_565 S
Cd48 O49 2.240 1_455 S
Cd48 O56 2.223 . S
Cd48 O58 2.297 . S
Cd48 O59 2.439 . S
O49 Cd48 2.240 1_655 S
O49 C54 1.279 . S
O50 Cd47 2.297 . S
O50 C52 1.247 . S
O51 Cd47 2.439 1_545 S
O51 C52 1.208 1_545 S
C52 O50 1.247 . S
C52 O51 1.208 1_565 S
C53 O58 1.247 . S
C53 O59 1.208 . S
C54 O46 1.315 1_645 S
C54 O49 1.279 . S
C55 O56 1.315 . S
C55 O57 1.279 . S
O56 Cd48 2.223 . S
O56 C55 1.315 . S
O57 Cd47 2.240 1_545 S
O57 C55 1.279 . S
O58 Cd48 2.297 . S
O58 C53 1.247 . S
O59 Cd48 2.439 . S
O59 C53 1.208 . S
O60 Cd61 2.223 . S
O60 C68 1.315 . S
Cd61 O60 2.223 . S
Cd61 O64 2.297 . S
Cd61 O65 2.439 . S
Cd61 O71 2.240 . S
Cd62 O63 2.240 1_565 S
Cd62 O70 2.223 . S
Cd62 O72 2.297 . S
Cd62 O73 2.439 . S
O63 Cd62 2.240 1_545 S
O63 C68 1.279 . S
O64 Cd61 2.297 . S
O64 C66 1.247 . S
O65 Cd61 2.439 . S
O65 C66 1.208 . S
C66 O64 1.247 . S
C66 O65 1.208 . S
C67 O72 1.247 . S
C67 O73 1.208 . S
C68 O60 1.315 . S
C68 O63 1.279 . S
C69 O70 1.315 1_545 S
C69 O71 1.279 . S
O70 Cd62 2.223 . S
O70 C69 1.315 1_565 S
O71 Cd61 2.240 . S
O71 C69 1.279 . S
O72 Cd62 2.297 . S
O72 C67 1.247 . S
O73 Cd62 2.439 . S
O73 C67 1.208 . S
C74 C75 1.363 . S
C74 C80 1.379 . S
C74 N82 1.356 . S
C75 C74 1.363 . S
C75 C81 1.363 . S
C76 C77 1.363 . S
C76 C81 1.379 . S
C76 N83 1.356 . S
C77 C76 1.363 . S
C77 C80 1.363 . S
N78 C80 1.356 . S
N78 H90 0.984 1_545 S
N78 H91 0.985 . S
N79 C81 1.356 . S
N79 H84 0.984 . S
N79 H85 0.985 . S
C80 C74 1.379 . S
C80 C77 1.363 . S
C80 N78 1.356 . S
C81 C75 1.363 . S
C81 C76 1.379 . S
C81 N79 1.356 . S
N82 C74 1.356 . S
N82 H88 0.984 1_545 S
N82 H89 0.984 . S
N83 C76 1.356 . S
N83 H86 0.984 . S
N83 H87 0.985 . S
H84 N79 0.984 . S
H85 N79 0.985 . S
H86 N83 0.984 . S
H87 N83 0.985 . S
H88 N82 0.984 1_565 S
H89 N82 0.984 . S
H90 N78 0.984 1_565 S
H91 N78 0.985 . S
C92 C93 1.363 1_655 S
C92 C98 1.379 . S
C92 N100 1.356 . S
C93 C92 1.363 1_455 S
C93 C99 1.363 . S
C94 C95 1.363 . S
C94 C99 1.379 . S
C94 N101 1.356 . S
C95 C94 1.363 . S
C95 C98 1.363 1_455 S
N96 C98 1.356 . S
N96 H108 0.984 . S
N96 H109 0.985 . S
N97 C99 1.356 . S
N97 H102 0.984 . S
N97 H103 0.985 . S
C98 C92 1.379 . S
C98 C95 1.363 1_655 S
C98 N96 1.356 . S
C99 C93 1.363 . S
C99 C94 1.379 . S
C99 N97 1.356 . S
N100 C92 1.356 . S
N100 H106 0.984 . S
N100 H107 0.984 . S
N101 C94 1.356 . S
N101 H104 0.984 . S
N101 H105 0.985 . S
H102 N97 0.984 . S
H103 N97 0.985 . S
H104 N101 0.984 . S
H105 N101 0.985 . S
H106 N100 0.984 . S
H107 N100 0.984 . S
H108 N96 0.984 . S
H109 N96 0.985 . S
C110 C111 1.363 . S
C110 C116 1.379 . S
C110 N118 1.356 . S
C111 C110 1.363 . S
C111 C117 1.363 . S
C112 C113 1.363 . S
C112 C117 1.379 . S
C112 N119 1.356 1_545 S
C113 C112 1.363 . S
C113 C116 1.363 . S
N114 C116 1.356 . S
N114 H126 0.984 . S
N114 H127 0.985 1_655 S
N115 C117 1.356 1_565 S
N115 H120 0.984 1_565 S
N115 H121 0.985 . S
C116 C110 1.379 . S
C116 C113 1.363 . S
C116 N114 1.356 . S
C117 C111 1.363 . S
C117 C112 1.379 . S
C117 N115 1.356 1_545 S
N118 C110 1.356 . S
N118 H124 0.984 . S
N118 H125 0.984 . S
N119 C112 1.356 1_565 S
N119 H122 0.984 . S
N119 H123 0.985 . S
H120 N115 0.984 1_545 S
H121 N115 0.985 . S
H122 N119 0.984 . S
H123 N119 0.985 . S
H124 N118 0.984 . S
H125 N118 0.984 . S
H126 N114 0.984 . S
H127 N114 0.985 1_455 S
C128 C129 1.363 . S
C128 C134 1.379 . S
C128 N136 1.356 1_455 S
C129 C128 1.363 . S
C129 C135 1.363 . S
C130 C131 1.363 . S
C130 C135 1.379 . S
C130 N137 1.356 . S
C131 C130 1.363 . S
C131 C134 1.363 . S
N132 C134 1.356 . S
N132 H144 0.984 1_455 S
N132 H145 0.985 . S
N133 C135 1.356 . S
N133 H138 0.984 . S
N133 H139 0.985 . S
C134 C128 1.379 . S
C134 C131 1.363 . S
C134 N132 1.356 . S
C135 C129 1.363 . S
C135 C130 1.379 . S
C135 N133 1.356 . S
N136 C128 1.356 1_655 S
N136 H142 0.984 . S
N136 H143 0.984 . S
N137 C130 1.356 . S
N137 H140 0.984 . S
N137 H141 0.985 . S
H138 N133 0.984 . S
H139 N133 0.985 . S
H140 N137 0.984 . S
H141 N137 0.985 . S
H142 N136 0.984 . S
H143 N136 0.984 . S
H144 N132 0.984 1_655 S
H145 N132 0.985 . S
C146 C147 1.363 . S
C146 C152 1.379 1_545 S
C146 N154 1.356 1_545 S
C147 C146 1.363 . S
C147 C153 1.363 . S
C148 C149 1.363 . S
C148 C153 1.379 . S
C148 N155 1.356 . S
C149 C148 1.363 . S
C149 C152 1.363 1_545 S
N150 C152 1.356 . S
N150 H162 0.984 . S
N150 H163 0.985 . S
N151 C153 1.356 . S
N151 H156 0.984 . S
N151 H157 0.985 . S
C152 C146 1.379 1_565 S
C152 C149 1.363 1_565 S
C152 N150 1.356 . S
C153 C147 1.363 . S
C153 C148 1.379 . S
C153 N151 1.356 . S
N154 C146 1.356 1_565 S
N154 H160 0.984 . S
N154 H161 0.984 1_565 S
N155 C148 1.356 . S
N155 H158 0.984 . S
N155 H159 0.985 . S
H156 N151 0.984 . S
H157 N151 0.985 . S
H158 N155 0.984 . S
H159 N155 0.985 . S
H160 N154 0.984 . S
H161 N154 0.984 1_545 S
H162 N150 0.984 . S
H163 N150 0.985 . S
C164 C165 1.363 . S
C164 C170 1.379 . S
C164 N172 1.356 . S
C165 C164 1.363 . S
C165 C171 1.363 . S
C166 C167 1.363 . S
C166 C171 1.379 . S
C166 N173 1.356 . S
C167 C166 1.363 . S
C167 C170 1.363 . S
N168 C170 1.356 . S
N168 H180 0.984 . S
N168 H181 0.985 . S
N169 C171 1.356 . S
N169 H174 0.984 . S
N169 H175 0.985 . S
C170 C164 1.379 . S
C170 C167 1.363 . S
C170 N168 1.356 . S
C171 C165 1.363 . S
C171 C166 1.379 . S
C171 N169 1.356 . S
N172 C164 1.356 . S
N172 H178 0.984 . S
N172 H179 0.984 . S
N173 C166 1.356 . S
N173 H176 0.984 . S
N173 H177 0.985 . S
H174 N169 0.984 . S
H175 N169 0.985 . S
H176 N173 0.984 . S
H177 N173 0.985 . S
H178 N172 0.984 . S
H179 N172 0.984 . S
H180 N168 0.984 . S
H181 N168 0.985 . S
C182 C183 1.363 . S
C182 C188 1.379 . S
C182 N190 1.356 . S
C183 C182 1.363 . S
C183 C189 1.363 . S
C184 C185 1.363 . S
C184 C189 1.379 . S
C184 N191 1.356 . S
C185 C184 1.363 . S
C185 C188 1.363 . S
N186 C188 1.356 1_455 S
N186 H198 0.984 . S
N186 H199 0.985 . S
N187 C189 1.356 . S
N187 H192 0.984 . S
N187 H193 0.985 . S
C188 C182 1.379 . S
C188 C185 1.363 . S
C188 N186 1.356 1_655 S
C189 C183 1.363 . S
C189 C184 1.379 . S
C189 N187 1.356 . S
N190 C182 1.356 . S
N190 H196 0.984 . S
N190 H197 0.984 . S
N191 C184 1.356 . S
N191 H194 0.984 . S
N191 H195 0.985 . S
H192 N187 0.984 . S
H193 N187 0.985 . S
H194 N191 0.984 . S
H195 N191 0.985 . S
H196 N190 0.984 . S
H197 N190 0.984 . S
H198 N186 0.984 . S
H199 N186 0.985 . S
C200 C201 1.363 . S
C200 C206 1.379 . S
C200 N208 1.356 . S
C201 C200 1.363 . S
C201 C207 1.363 1_455 S
C202 C203 1.363 1_655 S
C202 C207 1.379 . S
C202 N209 1.356 . S
C203 C202 1.363 1_455 S
C203 C206 1.363 . S
N204 C206 1.356 . S
N204 H216 0.984 . S
N204 H217 0.985 . S
N205 C207 1.356 . S
N205 H210 0.984 . S
N205 H211 0.985 . S
C206 C200 1.379 . S
C206 C203 1.363 . S
C206 N204 1.356 . S
C207 C201 1.363 1_655 S
C207 C202 1.379 . S
C207 N205 1.356 . S
N208 C200 1.356 . S
N208 H214 0.984 . S
N208 H215 0.984 . S
N209 C202 1.356 . S
N209 H212 0.984 . S
N209 H213 0.985 . S
H210 N205 0.984 . S
H211 N205 0.985 . S
H212 N209 0.984 . S
H213 N209 0.985 . S
H214 N208 0.984 . S
H215 N208 0.984 . S
H216 N204 0.984 . S
H217 N204 0.985 . S
C77 C55 1.553 . S
C75 N12 1.512 . S
C95 C66 1.519 . S
C93 N25 1.538 . S
C113 C54 1.571 . S
C111 C16 1.549 . S
C131 C67 1.532 . S
C129 C30 1.606 . S
C149 C69 1.608 . S
C147 C7 1.605 . S
C167 C53 1.487 . S
C165 C39 1.543 . S
C185 C68 1.583 1_655 S
C183 N2 1.546 . S
C201 N35 1.512 . S
C203 C52 1.495 . S
