# Generated by pormake.
# Topology pyr, (3,6)-cn, num edge types: 1
# Building blocks:
#     Node 0, Type 0, BuildingBlock: OLANEW_clean_sbu_2, # of connection points: 3
#     Node 1, Type 0, BuildingBlock: OLANEW_clean_sbu_2, # of connection points: 3
#     Node 2, Type 0, BuildingBlock: OLANEW_clean_sbu_2, # of connection points: 3
#     Node 3, Type 0, BuildingBlock: OLANEW_clean_sbu_2, # of connection points: 3
#     Node 4, Type 0, BuildingBlock: OLANEW_clean_sbu_2, # of connection points: 3
#     Node 5, Type 0, BuildingBlock: OLANEW_clean_sbu_2, # of connection points: 3
#     Node 6, Type 0, BuildingBlock: OLANEW_clean_sbu_2, # of connection points: 3
#     Node 7, Type 0, BuildingBlock: OLANEW_clean_sbu_2, # of connection points: 3
#     Node 8, Type 1, BuildingBlock: VOLQOD_clean_sbu_1, # of connection points: 6
#     Node 9, Type 1, BuildingBlock: VOLQOD_clean_sbu_1, # of connection points: 6
#     Node 10, Type 1, BuildingBlock: VOLQOD_clean_sbu_1, # of connection points: 6
#     Node 11, Type 1, BuildingBlock: VOLQOD_clean_sbu_1, # of connection points: 6
#     Edge 12, Type (0, 1), None
#     Edge 13, Type (0, 1), None
#     Edge 14, Type (0, 1), None
#     Edge 15, Type (0, 1), None
#     Edge 16, Type (0, 1), None
#     Edge 17, Type (0, 1), None
#     Edge 18, Type (0, 1), None
#     Edge 19, Type (0, 1), None
#     Edge 20, Type (0, 1), None
#     Edge 21, Type (0, 1), None
#     Edge 22, Type (0, 1), None
#     Edge 23, Type (0, 1), None
#     Edge 24, Type (0, 1), None
#     Edge 25, Type (0, 1), None
#     Edge 26, Type (0, 1), None
#     Edge 27, Type (0, 1), None
#     Edge 28, Type (0, 1), None
#     Edge 29, Type (0, 1), None
#     Edge 30, Type (0, 1), None
#     Edge 31, Type (0, 1), None
#     Edge 32, Type (0, 1), None
#     Edge 33, Type (0, 1), None
#     Edge 34, Type (0, 1), None
#     Edge 35, Type (0, 1), None
# Relax obj value: 0.112
# Max RMSD: 0.148
# Mean RMSD: 0.129
data_MOF--net-pry--node1-OLANEW_clean_sbu_2--node2-VOLQOD_clean_sbu_1--edge1-none
_symmetry_space_group_name_H-M    P1
_symmetry_Int_Tables_number       1
_symmetry_cell_setting            triclinic
loop_
_symmetry_equiv_pos_as_xyz
'x, y, z'
_cell_length_a     19.302471
_cell_length_b     19.769251
_cell_length_c     19.000768
_cell_angle_alpha  96.854539
_cell_angle_beta   90.931572
_cell_angle_gamma 94.714747
loop_
_atom_site_label
_atom_site_type_symbol
_atom_site_fract_x
_atom_site_fract_y
_atom_site_fract_z
_atom_type_partial_charge
O0 O 0.25663 0.12547 0.10769 0.0
Cd1 Cd 0.14363 0.17379 0.1337 0.0
O2 O 0.24221 0.04153 0.17526 0.0
Cd3 Cd 0.13678 0.04927 0.21466 0.0
O4 O 0.07551 0.02171 0.3051 0.0
C5 C 0.10733 0.04003 0.3642 0.0
O6 O 0.16836 0.07487 0.36488 0.0
C7 C 0.27949 0.07507 0.13448 0.0
C8 C 0.10457 0.28831 0.07057 0.0
O9 O 0.1554 0.29366 0.11559 0.0
O10 O 0.07326 0.2289 0.05291 0.0
O11 O 0.5955 0.9852 0.81497 0.0
Cd12 Cd 0.60562 0.96422 0.68573 0.0
O13 O 0.48267 0.9778 0.8009 0.0
Cd14 Cd 0.37252 0.96705 0.82303 0.0
O15 O 0.26912 0.94951 0.77285 0.0
C16 C 0.26258 0.9734 0.71412 0.0
O17 O 0.31628 0.0072 0.68909 0.0
C18 C 0.53591 0.98689 0.84207 0.0
C19 C 0.57545 0.82618 0.63656 0.0
O20 O 0.63396 0.84881 0.66675 0.0
O21 O 0.53021 0.86873 0.6285 0.0
O22 O 0.73888 0.43507 0.89218 0.0
Cd23 Cd 0.61258 0.42205 0.903 0.0
O24 O 0.72416 0.40586 0.99728 0.0
Cd25 Cd 0.73557 0.38382 0.10524 0.0
O26 O 0.66869 0.30192 0.14178 0.0
C27 C 0.61462 0.2787 0.10443 0.0
O28 O 0.59843 0.30777 0.04842 0.0
C29 C 0.76551 0.42449 0.9507 0.0
C30 C 0.55741 0.4807 0.79328 0.0
O31 O 0.58067 0.51797 0.84981 0.0
O32 O 0.55724 0.41558 0.79017 0.0
O33 O 0.9635 0.69764 0.46892 0.0
Cd34 Cd 0.94806 0.57428 0.42987 0.0
O35 O 0.00662 0.68103 0.57285 0.0
Cd36 Cd 0.95894 0.57656 0.55593 0.0
O37 O 0.84844 0.54548 0.5365 0.0
C38 C 0.81017 0.57738 0.58047 0.0
O39 O 0.83963 0.61941 0.6333 0.0
C40 C 0.99319 0.72139 0.52803 0.0
C41 C 0.9675 0.5463 0.28562 0.0
O42 O 0.01899 0.56438 0.32893 0.0
O43 O 0.90614 0.54071 0.31008 0.0
O44 O 0.89978 0.90119 0.86977 0.0
Cd45 Cd 0.85748 0.86981 0.98214 0.0
O46 O 0.95774 0.00052 0.90678 0.0
Cd47 Cd 0.92671 -0.00679 0.01486 0.0
O48 O 0.82683 0.983 0.06321 0.0
C49 C 0.80348 0.02694 0.10876 0.0
O50 O 0.84371 0.0809 0.13577 0.0
C51 C 0.93678 0.95421 0.85706 0.0
C52 C 0.91068 0.74762 0.00232 0.0
O53 O 0.85689 0.7487 0.96228 0.0
O54 O 0.93839 0.80414 0.03476 0.0
O55 O 0.56442 0.96005 0.40047 0.0
Cd56 Cd 0.61159 0.93679 0.515 0.0
O57 O 0.58426 0.07069 0.42967 0.0
Cd58 Cd 0.58572 0.17645 0.40688 0.0
O59 O 0.58196 0.28718 0.42179 0.0
C60 C 0.53019 0.31095 0.4536 0.0
O61 O 0.48012 0.26848 0.47292 0.0
C62 C 0.56314 0.02045 0.3844 0.0
C63 C 0.75575 0.96676 0.53459 0.0
O64 O 0.73052 0.91253 0.49594 0.0
O65 O 0.71333 0.00778 0.56318 0.0
O66 O 0.57214 0.73809 0.12211 0.0
Cd67 Cd 0.54847 0.62065 0.14774 0.0
O68 O 0.46073 0.73241 0.13838 0.0
Cd69 Cd 0.35707 0.76485 0.13803 0.0
O70 O 0.2567 0.71056 0.11182 0.0
C71 C 0.25547 0.65072 0.07847 0.0
O72 O 0.31398 0.62497 0.0598 0.0
C73 C 0.51586 0.76705 0.12457 0.0
C74 C 0.54614 0.61152 0.29297 0.0
O75 O 0.60001 0.59892 0.25673 0.0
O76 O 0.49275 0.62907 0.26101 0.0
O77 O 0.10033 0.57973 0.73872 0.0
Cd78 Cd 0.13602 0.58377 0.61443 0.0
O79 O 0.13017 0.47509 0.72558 0.0
Cd80 Cd 0.12911 0.37098 0.749 0.0
O81 O 0.11009 0.26429 0.70743 0.0
C82 C 0.0483 0.23879 0.69266 0.0
O83 O 0.99591 0.27622 0.7065 0.0
C84 C 0.10428 0.52324 0.76365 0.0
C85 C 0.27721 0.57583 0.5845 0.0
O86 O 0.25066 0.63349 0.59032 0.0
O87 O 0.23797 0.52249 0.59438 0.0
O88 O 0.97616 0.13598 0.66781 0.0
Zn89 Zn 0.9473 0.03519 0.6556 0.0
O90 O 0.0162 0.98127 0.6056 0.0
Zn91 Zn 0.97683 0.93781 0.51392 0.0
Zn92 Zn 0.09777 0.04167 0.59161 0.0
Zn93 Zn 0.04432 0.91212 0.66324 0.0
O94 O 0.98626 0.83568 0.5045 0.0
O95 O 0.02712 0.81783 0.61042 0.0
O96 O 0.85232 0.01584 0.60694 0.0
O97 O 0.87267 0.94623 0.50986 0.0
O98 O 0.02494 0.97966 0.43173 0.0
O99 O 0.11195 0.04663 0.48832 0.0
O100 O 0.18432 0.01415 0.63617 0.0
O101 O 0.93881 0.01102 0.75515 0.0
O102 O 0.14511 0.9292 0.69537 0.0
O103 O 0.99209 0.91516 0.75312 0.0
C104 C 0.03611 0.1669 0.66374 0.0
C105 C 0.00483 0.79559 0.54782 0.0
C106 C 0.07912 0.02137 0.43134 0.0
C107 C 0.83102 0.97844 0.55017 0.0
C108 C 0.19417 0.97092 0.67894 0.0
C109 C 0.95685 0.96054 0.78465 0.0
O110 O 0.08715 0.13618 0.63844 0.0
O111 O 0.54129 0.17846 0.06536 0.0
Zn112 Zn 0.49091 0.08271 0.05403 0.0
O113 O 0.53764 0.02709 0.11602 0.0
Zn114 Zn 0.58886 0.9614 0.05909 0.0
Zn115 Zn 0.6031 0.08584 0.1813 0.0
Zn116 Zn 0.47065 0.97742 0.17051 0.0
O117 O 0.56694 0.86699 0.08439 0.0
O118 O 0.46877 0.87459 0.14334 0.0
O119 O 0.49488 0.04251 0.94959 0.0
O120 O 0.56996 0.96355 0.95525 0.0
O121 O 0.69049 0.98174 0.07502 0.0
O122 O 0.70246 0.06667 0.1629 0.0
O123 O 0.58706 0.07386 0.28281 0.0
O124 O 0.39002 0.08932 0.08168 0.0
O125 O 0.50215 0.98998 0.27444 0.0
O126 O 0.37539 0.01309 0.15902 0.0
C127 C 0.58151 0.21122 0.11415 0.0
C128 C 0.51576 0.83948 0.11488 0.0
C129 C 0.72842 0.0238 0.1179 0.0
C130 C 0.5309 -0.00355 0.91962 0.0
C131 C 0.54735 0.03082 0.31098 0.0
C132 C 0.35173 0.0575 0.1233 0.0
O133 O 0.60293 0.18319 0.16622 0.0
O134 O 0.57344 0.56943 0.72235 0.0
Zn135 Zn 0.59778 0.61095 0.63402 0.0
O136 O 0.54195 0.56708 0.55275 0.0
Zn137 Zn 0.60405 0.52657 0.48232 0.0
Zn138 Zn 0.47921 0.49395 0.58189 0.0
Zn139 Zn 0.4872 0.63497 0.51586 0.0
O140 O 0.59003 0.56602 0.39143 0.0
O141 O 0.49945 0.6291 0.40844 0.0
O142 O 0.6988 0.59922 0.62055 0.0
O143 O 0.70569 0.54212 0.51339 0.0
O144 O 0.58167 0.42449 0.46151 0.0
O145 O 0.4846 0.40497 0.51984 0.0
O146 O 0.38027 0.51929 0.58571 0.0
O147 O 0.59204 0.71177 0.6476 0.0
O148 O 0.38522 0.61893 0.54162 0.0
O149 O 0.51995 0.73156 0.56129 0.0
C150 C 0.54218 0.51159 0.72958 0.0
C151 C 0.54522 0.60246 0.36847 0.0
C152 C 0.53119 0.38426 0.47788 0.0
C153 C 0.73428 0.57152 0.57108 0.0
C154 C 0.35127 0.57098 0.56919 0.0
C155 C 0.56096 0.75276 0.61407 0.0
O156 O 0.50821 0.47528 0.67873 0.0
O157 O 0.95285 0.48413 0.17115 0.0
Zn158 Zn 0.96414 0.44954 0.06726 0.0
O159 O 0.01735 0.51847 0.01918 0.0
Zn160 Zn 0.96255 0.54041 0.93959 0.0
Zn161 Zn 0.03573 0.60193 0.08486 0.0
Zn162 Zn 0.1058 0.48551 0.98552 0.0
O163 O 0.02002 0.53912 0.85156 0.0
O164 O 0.1122 0.48492 0.87753 0.0
O165 O 0.86692 0.42867 0.02395 0.0
O166 O 0.87352 0.47914 0.92525 0.0
O167 O 0.93007 0.63458 0.95827 0.0
O168 O 0.98172 0.67876 0.0605 0.0
O169 O 0.13456 0.63635 0.08599 0.0
O170 O 0.01629 0.36361 0.06478 0.0
O171 O 0.18655 0.55213 0.0259 0.0
O172 O 0.11878 0.39242 0.01902 0.0
C173 C 0.97861 0.53781 0.2095 0.0
C174 C 0.07669 0.51369 0.83402 0.0
C175 C 0.94173 0.68345 0.00791 0.0
C176 C 0.83997 0.44248 0.96625 0.0
C177 C 0.1889 0.61077 0.06236 0.0
C178 C 0.07776 0.35006 0.04747 0.0
O179 O 0.01417 0.58534 0.18366 0.0
loop_
_geom_bond_atom_site_label_1
_geom_bond_atom_site_label_2
_geom_bond_distance
_geom_bond_site_symmetry_2
_ccdc_geom_bond_type
O0 Cd1 2.300 . S
O0 C7 1.275 . S
Cd1 O0 2.300 . S
Cd1 O9 2.381 . S
Cd1 O10 2.378 . S
O2 Cd3 2.393 . S
O2 C7 1.255 . S
Cd3 O2 2.393 . S
Cd3 O4 2.326 . S
O4 Cd3 2.326 . S
O4 C5 1.232 . S
C5 O4 1.232 . S
C5 O6 1.218 1_545 S
O6 C5 1.218 1_565 S
C7 O0 1.275 . S
C7 O2 1.255 . S
C8 O9 1.258 . S
C8 O10 1.256 . S
O9 Cd1 2.381 . S
O9 C8 1.258 . S
O10 Cd1 2.378 . S
O10 C8 1.256 . S
O11 Cd12 2.300 . S
O11 C18 1.275 . S
Cd12 O11 2.300 . S
Cd12 O20 2.381 . S
Cd12 O21 2.378 . S
O13 Cd14 2.385 . S
O13 C18 1.255 . S
Cd14 O13 2.385 . S
Cd14 O15 2.317 . S
O15 Cd14 2.317 . S
O15 C16 1.232 . S
C16 O15 1.232 . S
C16 O17 1.224 . S
O17 C16 1.224 . S
C18 O11 1.275 . S
C18 O13 1.255 . S
C19 O20 1.258 . S
C19 O21 1.256 . S
O20 Cd12 2.381 . S
O20 C19 1.258 . S
O21 Cd12 2.378 . S
O21 C19 1.256 . S
O22 Cd23 2.300 . S
O22 C29 1.275 . S
Cd23 O22 2.300 . S
Cd23 O31 2.381 . S
Cd23 O32 2.378 . S
O24 Cd25 2.385 . S
O24 C29 1.255 . S
Cd25 O24 2.385 . S
Cd25 O26 2.317 . S
O26 Cd25 2.317 . S
O26 C27 1.232 1_556 S
C27 O26 1.232 1_554 S
C27 O28 1.218 . S
O28 C27 1.218 . S
C29 O22 1.275 . S
C29 O24 1.255 . S
C30 O31 1.258 . S
C30 O32 1.256 . S
O31 Cd23 2.381 . S
O31 C30 1.258 . S
O32 Cd23 2.378 . S
O32 C30 1.256 . S
O33 Cd34 2.300 . S
O33 C40 1.275 . S
Cd34 O33 2.300 . S
Cd34 O42 2.381 1_655 S
Cd34 O43 2.378 1_655 S
O35 Cd36 2.385 . S
O35 C40 1.255 . S
Cd36 O35 2.385 . S
Cd36 O37 2.317 . S
O37 Cd36 2.317 . S
O37 C38 1.232 . S
C38 O37 1.232 . S
C38 O39 1.218 . S
O39 C38 1.218 . S
C40 O33 1.275 . S
C40 O35 1.255 . S
C41 O42 1.258 . S
C41 O43 1.256 . S
O42 Cd34 2.381 1_455 S
O42 C41 1.258 . S
O43 Cd34 2.378 1_455 S
O43 C41 1.256 . S
O44 Cd45 2.300 . S
O44 C51 1.275 1_565 S
Cd45 O44 2.300 . S
Cd45 O53 2.381 . S
Cd45 O54 2.378 1_656 S
O46 Cd47 2.385 1_556 S
O46 C51 1.255 . S
Cd47 O46 2.385 1_554 S
Cd47 O48 2.317 . S
O48 Cd47 2.317 . S
O48 C49 1.232 . S
C49 O48 1.232 . S
C49 O50 1.218 . S
O50 C49 1.218 . S
C51 O44 1.275 1_545 S
C51 O46 1.255 . S
C52 O53 1.258 1_454 S
C52 O54 1.256 . S
O53 Cd45 2.381 . S
O53 C52 1.258 1_656 S
O54 Cd45 2.378 1_454 S
O54 C52 1.256 . S
O55 Cd56 2.300 . S
O55 C62 1.275 . S
Cd56 O55 2.300 . S
Cd56 O64 2.381 1_545 S
Cd56 O65 2.378 . S
O57 Cd58 2.385 . S
O57 C62 1.255 . S
Cd58 O57 2.385 . S
Cd58 O59 2.317 . S
O59 Cd58 2.317 . S
O59 C60 1.232 . S
C60 O59 1.232 . S
C60 O61 1.218 . S
O61 C60 1.218 . S
C62 O55 1.275 . S
C62 O57 1.255 . S
C63 O64 1.258 1_545 S
C63 O65 1.256 . S
O64 Cd56 2.381 1_565 S
O64 C63 1.258 1_565 S
O65 Cd56 2.378 . S
O65 C63 1.256 . S
O66 Cd67 2.300 . S
O66 C73 1.275 . S
Cd67 O66 2.300 . S
Cd67 O75 2.381 . S
Cd67 O76 2.378 . S
O68 Cd69 2.385 . S
O68 C73 1.255 . S
Cd69 O68 2.385 . S
Cd69 O70 2.317 . S
O70 Cd69 2.317 . S
O70 C71 1.232 . S
C71 O70 1.232 . S
C71 O72 1.218 . S
O72 C71 1.218 . S
C73 O66 1.275 . S
C73 O68 1.255 . S
C74 O75 1.258 . S
C74 O76 1.256 . S
O75 Cd67 2.381 . S
O75 C74 1.258 . S
O76 Cd67 2.378 . S
O76 C74 1.256 . S
O77 Cd78 2.300 . S
O77 C84 1.275 . S
Cd78 O77 2.300 . S
Cd78 O86 2.381 . S
Cd78 O87 2.378 . S
O79 Cd80 2.385 . S
O79 C84 1.255 . S
Cd80 O79 2.385 . S
Cd80 O81 2.317 . S
O81 Cd80 2.317 . S
O81 C82 1.232 . S
C82 O81 1.232 . S
C82 O83 1.218 . S
O83 C82 1.218 . S
C84 O77 1.275 . S
C84 O79 1.255 . S
C85 O86 1.258 . S
C85 O87 1.256 . S
O86 Cd78 2.381 . S
O86 C85 1.258 . S
O87 Cd78 2.378 . S
O87 C85 1.256 . S
O88 Zn89 1.953 . S
O88 C104 1.225 1_655 S
Zn89 O88 1.953 . S
Zn89 O90 1.949 1_655 S
Zn89 O96 1.919 . S
Zn89 O101 1.924 . S
O90 Zn89 1.949 1_455 S
O90 Zn91 1.923 1_445 S
O90 Zn92 1.950 . S
O90 Zn93 1.945 1_545 S
Zn91 O90 1.923 1_665 S
Zn91 O94 1.933 . S
Zn91 O97 1.941 1_565 S
Zn91 O98 1.965 1_665 S
Zn92 O90 1.950 . S
Zn92 O99 1.938 . S
Zn92 O100 1.906 . S
Zn92 O110 1.953 . S
Zn93 O90 1.945 1_565 S
Zn93 O95 1.932 1_455 S
Zn93 O102 1.977 . S
Zn93 O103 1.910 1_455 S
O94 Zn91 1.933 . S
O94 C105 1.226 . S
O95 Zn93 1.932 1_655 S
O95 C105 1.307 . S
O96 Zn89 1.919 . S
O96 C107 1.253 . S
O97 Zn91 1.941 1_545 S
O97 C107 1.283 . S
O98 Zn91 1.965 1_445 S
O98 C106 1.303 . S
O99 Zn92 1.938 . S
O99 C106 1.247 . S
O100 Zn92 1.906 . S
O100 C108 1.304 1_545 S
O101 Zn89 1.924 . S
O101 C109 1.311 . S
O102 Zn93 1.977 . S
O102 C108 1.272 . S
O103 Zn93 1.910 1_655 S
O103 C109 1.231 1_565 S
C104 O88 1.225 1_455 S
C104 O110 1.298 . S
C105 O94 1.226 . S
C105 O95 1.307 . S
C106 O98 1.303 . S
C106 O99 1.247 . S
C107 O96 1.253 . S
C107 O97 1.283 . S
C108 O100 1.304 1_565 S
C108 O102 1.272 . S
C109 O101 1.311 . S
C109 O103 1.231 1_545 S
O110 Zn92 1.953 . S
O110 C104 1.298 . S
O111 Zn112 1.953 . S
O111 C127 1.225 . S
Zn112 O111 1.953 . S
Zn112 O113 1.949 . S
Zn112 O119 1.919 1_554 S
Zn112 O124 1.924 . S
O113 Zn112 1.949 . S
O113 Zn114 1.923 1_545 S
O113 Zn115 1.950 . S
O113 Zn116 1.945 . S
Zn114 O113 1.923 1_565 S
Zn114 O117 1.933 . S
Zn114 O120 1.941 1_554 S
Zn114 O121 1.965 . S
Zn115 O113 1.950 . S
Zn115 O122 1.938 . S
Zn115 O123 1.906 . S
Zn115 O133 1.953 . S
Zn116 O113 1.945 . S
Zn116 O118 1.932 1_545 S
Zn116 O125 1.977 . S
Zn116 O126 1.910 . S
O117 Zn114 1.933 . S
O117 C128 1.226 . S
O118 Zn116 1.932 1_565 S
O118 C128 1.307 . S
O119 Zn112 1.919 1_556 S
O119 C130 1.253 1_545 S
O120 Zn114 1.941 1_556 S
O120 C130 1.283 . S
O121 Zn114 1.965 . S
O121 C129 1.303 1_565 S
O122 Zn115 1.938 . S
O122 C129 1.247 . S
O123 Zn115 1.906 . S
O123 C131 1.304 . S
O124 Zn112 1.924 . S
O124 C132 1.311 . S
O125 Zn116 1.977 . S
O125 C131 1.272 . S
O126 Zn116 1.910 . S
O126 C132 1.231 . S
C127 O111 1.225 . S
C127 O133 1.298 . S
C128 O117 1.226 . S
C128 O118 1.307 . S
C129 O121 1.303 1_545 S
C129 O122 1.247 . S
C130 O119 1.253 1_565 S
C130 O120 1.283 . S
C131 O123 1.304 . S
C131 O125 1.272 . S
C132 O124 1.311 . S
C132 O126 1.231 . S
O133 Zn115 1.953 . S
O133 C127 1.298 . S
O134 Zn135 1.953 . S
O134 C150 1.225 . S
Zn135 O134 1.953 . S
Zn135 O136 1.949 . S
Zn135 O142 1.919 . S
Zn135 O147 1.924 . S
O136 Zn135 1.949 . S
O136 Zn137 1.923 . S
O136 Zn138 1.950 . S
O136 Zn139 1.945 . S
Zn137 O136 1.923 . S
Zn137 O140 1.933 . S
Zn137 O143 1.941 . S
Zn137 O144 1.965 . S
Zn138 O136 1.950 . S
Zn138 O145 1.938 . S
Zn138 O146 1.906 . S
Zn138 O156 1.953 . S
Zn139 O136 1.945 . S
Zn139 O141 1.932 . S
Zn139 O148 1.977 . S
Zn139 O149 1.910 . S
O140 Zn137 1.933 . S
O140 C151 1.226 . S
O141 Zn139 1.932 . S
O141 C151 1.307 . S
O142 Zn135 1.919 . S
O142 C153 1.253 . S
O143 Zn137 1.941 . S
O143 C153 1.283 . S
O144 Zn137 1.965 . S
O144 C152 1.303 . S
O145 Zn138 1.938 . S
O145 C152 1.247 . S
O146 Zn138 1.906 . S
O146 C154 1.304 . S
O147 Zn135 1.924 . S
O147 C155 1.311 . S
O148 Zn139 1.977 . S
O148 C154 1.272 . S
O149 Zn139 1.910 . S
O149 C155 1.231 . S
C150 O134 1.225 . S
C150 O156 1.298 . S
C151 O140 1.226 . S
C151 O141 1.307 . S
C152 O144 1.303 . S
C152 O145 1.247 . S
C153 O142 1.253 . S
C153 O143 1.283 . S
C154 O146 1.304 . S
C154 O148 1.272 . S
C155 O147 1.311 . S
C155 O149 1.231 . S
O156 Zn138 1.953 . S
O156 C150 1.298 . S
O157 Zn158 1.953 . S
O157 C173 1.225 . S
Zn158 O157 1.953 . S
Zn158 O159 1.949 1_655 S
Zn158 O165 1.919 . S
Zn158 O170 1.924 1_655 S
O159 Zn158 1.949 1_455 S
O159 Zn160 1.923 1_554 S
O159 Zn161 1.950 . S
O159 Zn162 1.945 1_554 S
Zn160 O159 1.923 1_556 S
Zn160 O163 1.933 . S
Zn160 O166 1.941 1_455 S
Zn160 O167 1.965 1_455 S
Zn161 O159 1.950 . S
Zn161 O168 1.938 . S
Zn161 O169 1.906 . S
Zn161 O179 1.953 . S
Zn162 O159 1.945 1_556 S
Zn162 O164 1.932 . S
Zn162 O171 1.977 1_556 S
Zn162 O172 1.910 1_556 S
O163 Zn160 1.933 . S
O163 C174 1.226 . S
O164 Zn162 1.932 . S
O164 C174 1.307 . S
O165 Zn158 1.919 . S
O165 C176 1.253 1_554 S
O166 Zn160 1.941 1_655 S
O166 C176 1.283 . S
O167 Zn160 1.965 1_655 S
O167 C175 1.303 1_655 S
O168 Zn161 1.938 . S
O168 C175 1.247 1_554 S
O169 Zn161 1.906 . S
O169 C177 1.304 . S
O170 Zn158 1.924 1_455 S
O170 C178 1.311 . S
O171 Zn162 1.977 1_554 S
O171 C177 1.272 . S
O172 Zn162 1.910 1_554 S
O172 C178 1.231 . S
C173 O157 1.225 . S
C173 O179 1.298 1_655 S
C174 O163 1.226 . S
C174 O164 1.307 . S
C175 O167 1.303 1_455 S
C175 O168 1.247 1_556 S
C176 O165 1.253 1_556 S
C176 O166 1.283 . S
C177 O169 1.304 . S
C177 O171 1.272 . S
C178 O170 1.311 . S
C178 O172 1.231 . S
O179 Zn161 1.953 . S
O179 C173 1.298 1_455 S
C5 C106 1.978 . S
C18 C130 1.515 . S
C150 C30 1.221 . S
C41 C173 1.616 1_455 S
C132 C7 2.062 . S
C108 C16 2.152 . S
C176 C29 1.803 . S
C153 C38 1.915 . S
C8 C178 1.675 . S
C127 C27 1.864 . S
C40 C105 1.778 . S
C19 C155 1.127 . S
C109 C51 1.958 . S
C62 C131 1.688 . S
C74 C151 1.837 . S
C84 C174 1.527 . S
C49 C129 2.309 . S
C107 C63 1.605 . S
C177 C71 1.181 . S
C154 C85 1.383 . S
C52 C175 2.005 1_554 S
C128 C73 2.009 . S
C104 C82 1.246 . S
C60 C152 1.746 . S
