# Generated by pormake.
# Topology pyr, (3,6)-cn, num edge types: 1
# Building blocks:
#     Node 0, Type 0, BuildingBlock: OLANEW_clean_sbu_2, # of connection points: 3
#     Node 1, Type 0, BuildingBlock: OLANEW_clean_sbu_2, # of connection points: 3
#     Node 2, Type 0, BuildingBlock: OLANEW_clean_sbu_2, # of connection points: 3
#     Node 3, Type 0, BuildingBlock: OLANEW_clean_sbu_2, # of connection points: 3
#     Node 4, Type 0, BuildingBlock: OLANEW_clean_sbu_2, # of connection points: 3
#     Node 5, Type 0, BuildingBlock: OLANEW_clean_sbu_2, # of connection points: 3
#     Node 6, Type 0, BuildingBlock: OLANEW_clean_sbu_2, # of connection points: 3
#     Node 7, Type 0, BuildingBlock: OLANEW_clean_sbu_2, # of connection points: 3
#     Node 8, Type 1, BuildingBlock: FUNLAD_clean_sbu_0, # of connection points: 6
#     Node 9, Type 1, BuildingBlock: FUNLAD_clean_sbu_0, # of connection points: 6
#     Node 10, Type 1, BuildingBlock: FUNLAD_clean_sbu_0, # of connection points: 6
#     Node 11, Type 1, BuildingBlock: FUNLAD_clean_sbu_0, # of connection points: 6
#     Edge 12, Type (0, 1), None
#     Edge 13, Type (0, 1), None
#     Edge 14, Type (0, 1), None
#     Edge 15, Type (0, 1), None
#     Edge 16, Type (0, 1), None
#     Edge 17, Type (0, 1), None
#     Edge 18, Type (0, 1), None
#     Edge 19, Type (0, 1), None
#     Edge 20, Type (0, 1), None
#     Edge 21, Type (0, 1), None
#     Edge 22, Type (0, 1), None
#     Edge 23, Type (0, 1), None
#     Edge 24, Type (0, 1), None
#     Edge 25, Type (0, 1), None
#     Edge 26, Type (0, 1), None
#     Edge 27, Type (0, 1), None
#     Edge 28, Type (0, 1), None
#     Edge 29, Type (0, 1), None
#     Edge 30, Type (0, 1), None
#     Edge 31, Type (0, 1), None
#     Edge 32, Type (0, 1), None
#     Edge 33, Type (0, 1), None
#     Edge 34, Type (0, 1), None
#     Edge 35, Type (0, 1), None
# Relax obj value: 0.372
# Max RMSD: 0.189
# Mean RMSD: 0.129
data_MOF--net-pry--node1-OLANEW_clean_sbu_2--node2-FUNLAD_clean_sbu_0--edge1-none
_symmetry_space_group_name_H-M    P1
_symmetry_Int_Tables_number       1
_symmetry_cell_setting            triclinic
loop_
_symmetry_equiv_pos_as_xyz
'x, y, z'
_cell_length_a     17.709164
_cell_length_b     20.40692
_cell_length_c     20.123313
_cell_angle_alpha  94.591373
_cell_angle_beta   90.921395
_cell_angle_gamma 87.191832
loop_
_atom_site_label
_atom_site_type_symbol
_atom_site_fract_x
_atom_site_fract_y
_atom_site_fract_z
_atom_type_partial_charge
O0 O 0.29776 0.1907 0.15016 0.0
Cd1 Cd 0.17032 0.25208 0.16459 0.0
O2 O 0.31154 0.11642 0.22645 0.0
Cd3 Cd 0.21967 0.12854 0.3031 0.0
O4 O 0.16266 0.11874 0.40132 0.0
C5 C 0.15263 0.06171 0.4206 0.0
O6 O 0.17405 1.00974 0.38147 0.0
C7 C 0.33478 0.14261 0.17515 0.0
C8 C 0.12774 0.37401 0.10872 0.0
O9 O 0.14851 0.37188 0.16987 0.0
O10 O 0.1303 0.31958 0.07212 0.0
O11 O 0.492 0.92991 0.90201 0.0
Cd12 Cd 0.44164 0.86342 0.7994 0.0
O13 O 0.45398 0.02713 0.87049 0.0
Cd14 Cd 0.40326 0.97839 0.78046 0.0
O15 O 0.30958 0.95371 0.71163 0.0
C16 C 0.27591 1.00662 0.69602 0.0
O17 O 0.30351 0.06285 0.71865 0.0
C18 C 0.48548 0.99263 0.91382 0.0
C19 C 0.50263 0.75126 0.72042 0.0
O20 O 0.50249 0.80887 0.6992 0.0
O21 O 0.47927 0.74683 0.77985 0.0
O22 O 0.78151 0.51981 0.08567 0.0
Cd23 Cd 0.64949 0.48722 0.08877 0.0
O24 O 0.79199 0.46684 0.9874 0.0
Cd25 Cd 0.84495 0.41269 0.90161 0.0
O26 O 0.78015 0.34016 0.94755 0.0
C27 C 0.71347 0.32611 0.92893 0.0
O28 O 0.68511 0.34895 0.87418 0.0
C29 C 0.82128 0.5024 0.03465 0.0
C30 C 0.5961 0.49111 0.95898 0.0
O31 O 0.61178 0.43572 0.9827 0.0
O32 O 0.60033 0.54354 0.99809 0.0
O33 O 0.10289 0.63736 0.58046 0.0
Cd34 Cd 0.08146 0.5301 0.52894 0.0
O35 O 0.98016 0.64787 0.56481 0.0
Cd36 Cd 0.95232 0.55095 0.59059 0.0
O37 O 0.83704 0.54281 0.62352 0.0
C38 C 0.79252 0.58848 0.6043 0.0
O39 O 0.81897 0.6324 0.56767 0.0
C40 C 0.04388 0.67344 0.57149 0.0
C41 C 0.04883 0.56373 0.40117 0.0
O42 O 0.11725 0.55704 0.42199 0.0
O43 O 0.99544 0.54991 0.43919 0.0
O44 O 0.98195 0.91562 0.81284 0.0
Cd45 Cd 0.9294 0.86676 0.91544 0.0
O46 O 0.93622 1.01687 0.8375 0.0
Cd47 Cd 0.8812 0.9858 0.92662 0.0
O48 O 0.79157 0.97602 0.99937 0.0
C49 C 0.77682 0.02837 0.03615 0.0
O50 O 0.81899 0.07885 0.03085 0.0
C51 C 0.97296 0.97565 0.79814 0.0
C52 C 0.97706 0.74939 0.97754 0.0
O53 O 0.94912 0.74783 0.91825 0.0
O54 O 0.987 0.80617 1.00749 0.0
O55 O 0.6648 0.10039 0.34178 0.0
Cd56 Cd 0.69851 0.10661 0.46448 0.0
O57 O 0.61507 0.20064 0.32851 0.0
Cd58 Cd 0.62944 0.24911 0.43117 0.0
O59 O 0.61727 0.32746 0.51525 0.0
C60 C 0.60256 0.38497 0.49679 0.0
O61 O 0.5973 0.3924 0.4326 0.0
C62 C 0.63278 0.1421 0.30474 0.0
C63 C 0.84186 0.07237 0.52184 0.0
O64 O 0.79784 0.02724 0.49997 0.0
O65 O 0.82059 0.13215 0.51349 0.0
O66 O 0.65188 0.71045 0.12468 0.0
Cd67 Cd 0.67363 0.59828 0.14599 0.0
O68 O 0.53336 0.68533 0.12386 0.0
Cd69 Cd 0.40975 0.69213 0.12665 0.0
O70 O 0.29313 0.66087 0.11727 0.0
C71 C 0.27169 0.62524 0.0663 0.0
O72 O 0.31938 0.6084 1.0179 0.0
C73 C 0.58252 0.72898 0.12833 0.0
C74 C 0.61731 0.60902 0.2733 0.0
O75 O 0.68609 0.62127 0.26243 0.0
O76 O 0.57676 0.58591 0.22437 0.0
O77 O 0.1099 0.4839 0.64487 0.0
Cd78 Cd 0.19608 0.45931 0.55218 0.0
O79 O 0.21752 0.46872 0.69792 0.0
Cd80 Cd 0.27671 0.45172 0.79183 0.0
O81 O 0.23208 0.35843 0.75492 0.0
C82 C 0.17833 0.33039 0.78043 0.0
O83 O 0.15406 0.35161 0.83999 0.0
C84 C 0.14702 0.48289 0.69906 0.0
C85 C 0.33346 0.5135 0.58814 0.0
O86 O 0.31993 0.45497 0.60148 0.0
O87 O 0.28352 0.54586 0.55556 0.0
C88 C 0.11899 0.052 0.48617 0.0
N89 N 0.07319 0.1762 0.66417 0.0
C90 C 0.13574 0.20305 0.6413 0.0
C91 C 0.16937 0.25451 0.67803 0.0
C92 C 0.13933 0.27863 0.73964 0.0
C93 C 0.07182 0.25355 0.7603 0.0
C94 C 0.03931 0.202 0.72139 0.0
Zn95 Zn 0.05669 0.08138 0.62669 0.0
C96 C 0.91485 0.0572 0.55599 0.0
N97 N 0.0537 0.87913 0.56488 0.0
C98 C 0.1176 0.84069 0.5521 0.0
C99 C 0.98617 0.85261 0.57422 0.0
C100 C 0.9818 0.78501 0.57482 0.0
C101 C 0.04778 0.74449 0.56683 0.0
C102 C 0.11603 0.77255 0.5534 0.0
Zn103 Zn 0.06018 0.97545 0.59358 0.0
O104 O 0.1022 0.1 0.52874 0.0
C105 C 0.20195 1.00776 0.66219 0.0
O106 O 0.10788 0.99384 0.50083 0.0
H107 H 0.93655 0.88405 0.58602 0.0
H108 H 0.1644 0.18112 0.5976 0.0
H109 H 0.17067 0.86297 0.54481 0.0
O110 O 0.16528 0.06231 0.66305 0.0
O111 O 0.1722 0.95667 0.63535 0.0
H112 H 0.99012 0.17994 0.7394 0.0
O113 O 1.01515 0.95304 0.68646 0.0
O114 O 1.0105 0.05652 0.72375 0.0
O115 O 0.94631 0.99919 0.55155 0.0
O116 O 0.94794 0.10353 0.58887 0.0
C117 C 1.00124 0.99634 0.73372 0.0
H118 H 0.22081 0.27286 0.65963 0.0
H119 H 0.04582 0.27197 0.80689 0.0
H120 H 0.92788 0.76506 0.58469 0.0
H121 H 0.16769 0.74246 0.54546 0.0
C122 C 0.70243 0.04026 0.06711 0.0
N123 N 0.5848 0.21283 0.05097 0.0
C124 C 0.64975 0.23926 0.07542 0.0
C125 C 0.69144 0.2778 0.0368 0.0
C126 C 0.6661 0.28999 0.97238 0.0
C127 C 0.59521 0.26779 0.95082 0.0
C128 C 0.5553 0.22881 0.9911 0.0
Zn129 Zn 0.55955 0.12588 0.08916 0.0
C130 C 0.50875 0.02426 0.97976 0.0
N131 N 0.54117 0.93482 0.15399 0.0
C132 C 0.60387 0.90696 0.18194 0.0
C133 C 0.4846 0.89748 0.1276 0.0
C134 C 0.49432 0.82881 0.12138 0.0
C135 C 0.56263 0.79946 0.14287 0.0
C136 C 0.61582 0.83904 0.17679 0.0
Zn137 Zn 0.55327 0.02639 0.12435 0.0
O138 O 0.67167 0.09718 0.06602 0.0
C139 C 0.60925 0.12026 0.23522 0.0
O140 O 0.66531 0.99494 0.0887 0.0
H141 H 0.43542 0.92084 0.1052 0.0
H142 H 0.67389 0.225 0.12203 0.0
H143 H 0.64843 0.93739 0.20196 0.0
O144 O 0.59468 0.16128 0.19136 0.0
O145 O 0.59896 0.05967 0.21999 0.0
H146 H 0.50406 0.20712 0.97197 0.0
O147 O 0.43941 0.06253 0.15868 0.0
O148 O 0.44612 0.1568 0.11303 0.0
O149 O 0.51164 0.99031 0.02962 0.0
O150 O 0.52413 0.08484 0.98847 0.0
C151 C 0.40936 0.11896 0.1466 0.0
H152 H 0.74486 0.29526 0.05623 0.0
H153 H 0.57269 0.27745 0.90202 0.0
H154 H 0.45181 0.79982 0.09546 0.0
H155 H 0.66842 0.81798 0.19579 0.0
C156 C 0.58955 0.44357 0.54426 0.0
N157 N 0.57634 0.50829 0.75054 0.0
C158 C 0.54302 0.45718 0.77614 0.0
C159 C 0.54847 0.44938 0.84494 0.0
C160 C 0.58639 0.49593 0.88681 0.0
C161 C 0.62059 0.54711 0.85867 0.0
C162 C 0.61582 0.55183 0.79054 0.0
Zn163 Zn 0.56526 0.53753 0.65551 0.0
C164 C 0.71093 0.58581 0.61183 0.0
N165 N 0.54513 0.62641 0.473 0.0
C166 C 0.50592 0.5887 0.42677 0.0
C167 C 0.59779 0.66747 0.4544 0.0
C168 C 0.62015 0.66471 0.38808 0.0
C169 C 0.58632 0.62067 0.34078 0.0
C170 C 0.52534 0.58554 0.35973 0.0
Zn171 Zn 0.55114 0.59548 0.56682 0.0
O172 O 0.59149 0.44108 0.60735 0.0
C173 C 0.40786 0.53934 0.6031 0.0
O174 O 0.57476 0.49853 0.52019 0.0
H175 H 0.62791 0.69747 0.49172 0.0
H176 H 0.51124 0.42345 0.74373 0.0
H177 H 0.46524 0.55544 0.44237 0.0
O178 O 0.44917 0.51645 0.64901 0.0
O179 O 0.43486 0.57785 0.56409 0.0
H180 H 0.6422 0.5922 0.77005 0.0
O181 O 0.52836 0.6921 0.61403 0.0
O182 O 0.53598 0.63639 0.70268 0.0
O183 O 0.66742 0.61102 0.5694 0.0
O184 O 0.68352 0.55378 0.65634 0.0
C185 C 0.52485 0.69114 0.67704 0.0
H186 H 0.52224 0.40863 0.86527 0.0
H187 H 0.65191 0.58301 0.88905 0.0
H188 H 0.66605 0.69408 0.37469 0.0
H189 H 0.49723 0.55179 0.32432 0.0
C190 C 0.99982 0.68706 1.00785 0.0
N191 N 0.02007 0.60359 0.1994 0.0
C192 C 0.07004 0.63873 0.23818 0.0
C193 C 0.07835 0.62865 0.30583 0.0
C194 C 0.03271 0.58416 0.33393 0.0
C195 C 0.97553 0.55507 0.29518 0.0
C196 C 0.97107 0.56442 0.22747 0.0
Zn197 Zn 0.03949 0.58401 0.09853 0.0
C198 C 0.90038 0.52116 0.03358 0.0
N199 N 0.07448 0.51957 0.89597 0.0
C200 C 0.1199 0.56215 0.86909 0.0
C201 C 0.0418 0.47063 0.85727 0.0
C202 C 0.05904 0.46063 0.7894 0.0
C203 C 0.11172 0.50031 0.7632 0.0
C204 C 0.14054 0.55253 0.80296 0.0
Zn205 Zn 0.05498 0.54021 0.99468 0.0
O206 O 1.00339 0.68248 0.07086 0.0
C207 C 0.19395 0.60325 0.06165 0.0
O208 O 1.0157 0.63625 0.96912 0.0
H209 H 1.00411 0.43847 0.87916 0.0
H210 H 0.10806 0.67037 0.21611 0.0
H211 H 0.14131 0.6036 0.89897 0.0
O212 O 0.15022 0.61518 0.1106 0.0
O213 O 0.16968 0.57263 1.00873 0.0
H214 H 0.93297 0.5348 0.19726 0.0
O215 O 0.09442 0.44359 1.02016 0.0
O216 O 0.07967 0.48582 0.12311 0.0
O217 O 0.94211 0.50704 0.98323 0.0
O218 O 0.92706 0.55328 0.08438 0.0
C219 C 0.09964 0.43711 0.08253 0.0
H220 H 0.12217 0.65308 0.33511 0.0
H221 H 0.9392 0.5206 0.31549 0.0
H222 H 0.03598 0.41982 0.75923 0.0
H223 H 0.18051 0.58449 0.78347 0.0
loop_
_geom_bond_atom_site_label_1
_geom_bond_atom_site_label_2
_geom_bond_distance
_geom_bond_site_symmetry_2
_ccdc_geom_bond_type
O0 Cd1 2.300 . S
O0 C7 1.275 . S
Cd1 O0 2.300 . S
Cd1 O9 2.381 . S
Cd1 O10 2.378 . S
O2 Cd3 2.385 1_545 S
O2 C7 1.255 . S
Cd3 O2 2.385 1_565 S
Cd3 O4 2.317 1_565 S
O4 Cd3 2.317 1_545 S
O4 C5 1.232 . S
C5 O4 1.232 . S
C5 O6 1.218 1_545 S
O6 C5 1.218 1_565 S
C7 O0 1.275 . S
C7 O2 1.255 . S
C8 O9 1.258 . S
C8 O10 1.256 . S
O9 Cd1 2.381 . S
O9 C8 1.258 . S
O10 Cd1 2.378 . S
O10 C8 1.256 . S
O11 Cd12 2.300 . S
O11 C18 1.275 . S
Cd12 O11 2.300 . S
Cd12 O20 2.381 . S
Cd12 O21 2.378 . S
O13 Cd14 2.385 . S
O13 C18 1.255 . S
Cd14 O13 2.385 . S
Cd14 O15 2.317 . S
O15 Cd14 2.317 . S
O15 C16 1.232 1_565 S
C16 O15 1.232 1_545 S
C16 O17 1.218 . S
O17 C16 1.218 . S
C18 O11 1.275 . S
C18 O13 1.255 . S
C19 O20 1.258 . S
C19 O21 1.256 . S
O20 Cd12 2.381 . S
O20 C19 1.258 . S
O21 Cd12 2.378 . S
O21 C19 1.256 . S
O22 Cd23 2.300 1_554 S
O22 C29 1.275 . S
Cd23 O22 2.300 1_556 S
Cd23 O31 2.381 . S
Cd23 O32 2.378 . S
O24 Cd25 2.385 1_554 S
O24 C29 1.255 . S
Cd25 O24 2.385 1_556 S
Cd25 O26 2.317 1_556 S
O26 Cd25 2.317 1_554 S
O26 C27 1.232 . S
C27 O26 1.232 . S
C27 O28 1.218 . S
O28 C27 1.218 . S
C29 O22 1.275 . S
C29 O24 1.255 . S
C30 O31 1.258 . S
C30 O32 1.256 . S
O31 Cd23 2.381 . S
O31 C30 1.258 . S
O32 Cd23 2.378 . S
O32 C30 1.256 . S
O33 Cd34 2.300 . S
O33 C40 1.275 . S
Cd34 O33 2.300 . S
Cd34 O42 2.381 . S
Cd34 O43 2.378 . S
O35 Cd36 2.385 . S
O35 C40 1.255 . S
Cd36 O35 2.385 . S
Cd36 O37 2.317 . S
O37 Cd36 2.317 . S
O37 C38 1.232 . S
C38 O37 1.232 . S
C38 O39 1.218 . S
O39 C38 1.218 . S
C40 O33 1.275 . S
C40 O35 1.255 . S
C41 O42 1.258 . S
C41 O43 1.256 . S
O42 Cd34 2.381 . S
O42 C41 1.258 . S
O43 Cd34 2.378 . S
O43 C41 1.256 . S
O44 Cd45 2.300 . S
O44 C51 1.275 . S
Cd45 O44 2.300 . S
Cd45 O53 2.381 1_655 S
Cd45 O54 2.378 1_656 S
O46 Cd47 2.385 1_565 S
O46 C51 1.255 . S
Cd47 O46 2.385 1_545 S
Cd47 O48 2.317 1_546 S
O48 Cd47 2.317 1_564 S
O48 C49 1.232 1_564 S
C49 O48 1.232 1_546 S
C49 O50 1.218 . S
O50 C49 1.218 . S
C51 O44 1.275 . S
C51 O46 1.255 . S
C52 O53 1.258 . S
C52 O54 1.256 1_556 S
O53 Cd45 2.381 1_455 S
O53 C52 1.258 . S
O54 Cd45 2.378 1_454 S
O54 C52 1.256 1_554 S
O55 Cd56 2.300 . S
O55 C62 1.275 . S
Cd56 O55 2.300 . S
Cd56 O64 2.381 . S
Cd56 O65 2.378 . S
O57 Cd58 2.385 . S
O57 C62 1.255 . S
Cd58 O57 2.385 . S
Cd58 O59 2.317 . S
O59 Cd58 2.317 . S
O59 C60 1.232 . S
C60 O59 1.232 . S
C60 O61 1.218 . S
O61 C60 1.218 . S
C62 O55 1.275 . S
C62 O57 1.255 . S
C63 O64 1.258 . S
C63 O65 1.256 . S
O64 Cd56 2.381 . S
O64 C63 1.258 . S
O65 Cd56 2.378 . S
O65 C63 1.256 . S
O66 Cd67 2.300 . S
O66 C73 1.275 . S
Cd67 O66 2.300 . S
Cd67 O75 2.381 . S
Cd67 O76 2.378 . S
O68 Cd69 2.385 . S
O68 C73 1.255 . S
Cd69 O68 2.385 . S
Cd69 O70 2.317 . S
O70 Cd69 2.317 . S
O70 C71 1.232 . S
C71 O70 1.232 . S
C71 O72 1.211 1_554 S
O72 C71 1.211 1_556 S
C73 O66 1.275 . S
C73 O68 1.255 . S
C74 O75 1.258 . S
C74 O76 1.256 . S
O75 Cd67 2.381 . S
O75 C74 1.258 . S
O76 Cd67 2.378 . S
O76 C74 1.256 . S
O77 Cd78 2.300 . S
O77 C84 1.275 . S
Cd78 O77 2.300 . S
Cd78 O86 2.381 . S
Cd78 O87 2.378 . S
O79 Cd80 2.385 . S
O79 C84 1.255 . S
Cd80 O79 2.385 . S
Cd80 O81 2.317 . S
O81 Cd80 2.317 . S
O81 C82 1.232 . S
C82 O81 1.232 . S
C82 O83 1.218 . S
O83 C82 1.218 . S
C84 O77 1.275 . S
C84 O79 1.255 . S
C85 O86 1.258 . S
C85 O87 1.256 . S
O86 Cd78 2.381 . S
O86 C85 1.258 . S
O87 Cd78 2.378 . S
O87 C85 1.256 . S
C88 O104 1.251 . S
C88 O106 1.254 1_545 S
N89 C90 1.333 . S
N89 C94 1.307 . S
N89 Zn95 2.020 . S
C90 N89 1.333 . S
C90 C91 1.379 . S
C90 H108 0.952 . S
C91 C90 1.379 . S
C91 C92 1.390 . S
C91 H118 0.949 . S
C92 C91 1.390 . S
C92 C93 1.357 . S
C93 C92 1.357 . S
C93 C94 1.370 . S
C93 H119 0.950 . S
C94 N89 1.307 . S
C94 C93 1.370 . S
C94 H112 0.948 . S
Zn95 N89 2.020 . S
Zn95 O104 2.039 . S
Zn95 O110 2.034 . S
Zn95 O114 2.025 . S
Zn95 O116 2.024 1_455 S
C96 O115 1.246 . S
C96 O116 1.249 . S
N97 C98 1.307 1_655 S
N97 C99 1.333 . S
N97 Zn103 2.020 1_655 S
C98 N97 1.307 1_455 S
C98 C102 1.370 1_455 S
C98 H109 0.948 . S
C99 N97 1.333 . S
C99 C100 1.379 . S
C99 H107 0.952 . S
C100 C99 1.379 . S
C100 C101 1.390 . S
C100 H120 0.949 . S
C101 C100 1.390 . S
C101 C102 1.357 . S
C102 C98 1.370 1_655 S
C102 C101 1.357 . S
C102 H121 0.950 1_655 S
Zn103 N97 2.020 1_455 S
Zn103 O106 2.025 . S
Zn103 O111 2.024 . S
Zn103 O113 2.039 1_455 S
Zn103 O115 2.034 1_465 S
O104 C88 1.251 . S
O104 Zn95 2.039 . S
C105 O110 1.246 1_565 S
C105 O111 1.249 . S
O106 C88 1.254 1_565 S
O106 Zn103 2.025 . S
H107 C99 0.952 . S
H108 C90 0.952 . S
H109 C98 0.948 . S
O110 Zn95 2.034 . S
O110 C105 1.246 1_545 S
O111 Zn103 2.024 . S
O111 C105 1.249 . S
H112 C94 0.948 . S
O113 Zn103 2.039 1_655 S
O113 C117 1.251 1_565 S
O114 Zn95 2.025 . S
O114 C117 1.254 1_455 S
O115 C96 1.246 . S
O115 Zn103 2.034 1_645 S
O116 Zn95 2.024 1_655 S
O116 C96 1.249 . S
C117 O113 1.251 1_545 S
C117 O114 1.254 1_655 S
H118 C91 0.949 . S
H119 C93 0.950 . S
H120 C100 0.949 . S
H121 C102 0.950 1_455 S
C122 O138 1.251 1_565 S
C122 O140 1.254 . S
N123 C124 1.333 . S
N123 C128 1.307 . S
N123 Zn129 2.020 . S
C124 N123 1.333 . S
C124 C125 1.379 . S
C124 H142 0.952 . S
C125 C124 1.379 . S
C125 C126 1.390 . S
C125 H152 0.949 . S
C126 C125 1.390 . S
C126 C127 1.357 . S
C127 C126 1.357 . S
C127 C128 1.370 . S
C127 H153 0.950 . S
C128 N123 1.307 . S
C128 C127 1.370 . S
C128 H146 0.948 . S
Zn129 N123 2.020 . S
Zn129 O138 2.039 . S
Zn129 O144 2.034 . S
Zn129 O148 2.025 . S
Zn129 O150 2.024 1_554 S
C130 O149 1.246 1_546 S
C130 O150 1.249 . S
N131 C132 1.307 . S
N131 C133 1.333 . S
N131 Zn137 2.020 . S
C132 N131 1.307 . S
C132 C136 1.370 . S
C132 H143 0.948 . S
C133 N131 1.333 . S
C133 C134 1.379 . S
C133 H141 0.952 . S
C134 C133 1.379 . S
C134 C135 1.390 . S
C134 H154 0.949 . S
C135 C134 1.390 . S
C135 C136 1.357 . S
C136 C132 1.370 . S
C136 C135 1.357 . S
C136 H155 0.950 . S
Zn137 N131 2.020 . S
Zn137 O140 2.025 . S
Zn137 O145 2.024 1_565 S
Zn137 O147 2.039 1_565 S
Zn137 O149 2.034 . S
O138 C122 1.251 1_545 S
O138 Zn129 2.039 . S
C139 O144 1.246 . S
C139 O145 1.249 . S
O140 C122 1.254 . S
O140 Zn137 2.025 . S
H141 C133 0.952 . S
H142 C124 0.952 . S
H143 C132 0.948 . S
O144 Zn129 2.034 . S
O144 C139 1.246 . S
O145 Zn137 2.024 1_545 S
O145 C139 1.249 . S
H146 C128 0.948 . S
O147 Zn137 2.039 1_545 S
O147 C151 1.251 . S
O148 Zn129 2.025 . S
O148 C151 1.254 . S
O149 C130 1.246 1_564 S
O149 Zn137 2.034 . S
O150 Zn129 2.024 1_556 S
O150 C130 1.249 . S
C151 O147 1.251 . S
C151 O148 1.254 . S
H152 C125 0.949 . S
H153 C127 0.950 . S
H154 C134 0.949 . S
H155 C136 0.950 . S
C156 O172 1.251 . S
C156 O174 1.254 . S
N157 C158 1.333 . S
N157 C162 1.307 . S
N157 Zn163 2.020 . S
C158 N157 1.333 . S
C158 C159 1.379 . S
C158 H176 0.952 . S
C159 C158 1.379 . S
C159 C160 1.390 . S
C159 H186 0.949 . S
C160 C159 1.390 . S
C160 C161 1.357 . S
C161 C160 1.357 . S
C161 C162 1.370 . S
C161 H187 0.950 . S
C162 N157 1.307 . S
C162 C161 1.370 . S
C162 H180 0.948 . S
Zn163 N157 2.020 . S
Zn163 O172 2.039 . S
Zn163 O178 2.034 . S
Zn163 O182 2.025 . S
Zn163 O184 2.024 . S
C164 O183 1.246 . S
C164 O184 1.249 . S
N165 C166 1.307 . S
N165 C167 1.333 . S
N165 Zn171 2.020 . S
C166 N165 1.307 . S
C166 C170 1.370 . S
C166 H177 0.948 . S
C167 N165 1.333 . S
C167 C168 1.379 . S
C167 H175 0.952 . S
C168 C167 1.379 . S
C168 C169 1.390 . S
C168 H188 0.949 . S
C169 C168 1.390 . S
C169 C170 1.357 . S
C170 C166 1.370 . S
C170 C169 1.357 . S
C170 H189 0.950 . S
Zn171 N165 2.020 . S
Zn171 O174 2.025 . S
Zn171 O179 2.024 . S
Zn171 O181 2.039 . S
Zn171 O183 2.034 . S
O172 C156 1.251 . S
O172 Zn163 2.039 . S
C173 O178 1.246 . S
C173 O179 1.249 . S
O174 C156 1.254 . S
O174 Zn171 2.025 . S
H175 C167 0.952 . S
H176 C158 0.952 . S
H177 C166 0.948 . S
O178 Zn163 2.034 . S
O178 C173 1.246 . S
O179 Zn171 2.024 . S
O179 C173 1.249 . S
H180 C162 0.948 . S
O181 Zn171 2.039 . S
O181 C185 1.251 . S
O182 Zn163 2.025 . S
O182 C185 1.254 . S
O183 C164 1.246 . S
O183 Zn171 2.034 . S
O184 Zn163 2.024 . S
O184 C164 1.249 . S
C185 O181 1.251 . S
C185 O182 1.254 . S
H186 C159 0.949 . S
H187 C161 0.950 . S
H188 C168 0.949 . S
H189 C170 0.950 . S
C190 O206 1.251 1_556 S
C190 O208 1.254 . S
N191 C192 1.333 . S
N191 C196 1.307 . S
N191 Zn197 2.020 1_655 S
C192 N191 1.333 . S
C192 C193 1.379 . S
C192 H210 0.952 1_655 S
C193 C192 1.379 . S
C193 C194 1.390 . S
C193 H220 0.949 . S
C194 C193 1.390 . S
C194 C195 1.357 . S
C195 C194 1.357 . S
C195 C196 1.370 . S
C195 H221 0.950 . S
C196 N191 1.307 . S
C196 C195 1.370 . S
C196 H214 0.948 . S
Zn197 N191 2.020 1_455 S
Zn197 O206 2.039 . S
Zn197 O212 2.034 . S
Zn197 O216 2.025 . S
Zn197 O218 2.024 1_455 S
C198 O217 1.246 . S
C198 O218 1.249 1_556 S
N199 C200 1.307 . S
N199 C201 1.333 . S
N199 Zn205 2.020 . S
C200 N199 1.307 . S
C200 C204 1.370 . S
C200 H211 0.948 . S
C201 N199 1.333 . S
C201 C202 1.379 . S
C201 H209 0.952 . S
C202 C201 1.379 . S
C202 C203 1.390 . S
C202 H222 0.949 . S
C203 C202 1.390 . S
C203 C204 1.357 . S
C204 C200 1.370 . S
C204 C203 1.357 . S
C204 H223 0.950 . S
Zn205 N199 2.020 . S
Zn205 O208 2.025 . S
Zn205 O213 2.024 . S
Zn205 O215 2.039 . S
Zn205 O217 2.034 1_455 S
O206 C190 1.251 1_554 S
O206 Zn197 2.039 . S
C207 O212 1.246 . S
C207 O213 1.249 1_554 S
O208 C190 1.254 . S
O208 Zn205 2.025 . S
H209 C201 0.952 . S
H210 C192 0.952 1_455 S
H211 C200 0.948 . S
O212 Zn197 2.034 . S
O212 C207 1.246 . S
O213 Zn205 2.024 . S
O213 C207 1.249 1_556 S
H214 C196 0.948 . S
O215 Zn205 2.039 . S
O215 C219 1.251 1_556 S
O216 Zn197 2.025 . S
O216 C219 1.254 . S
O217 C198 1.246 . S
O217 Zn205 2.034 1_655 S
O218 Zn197 2.024 1_655 S
O218 C198 1.249 1_554 S
C219 O215 1.251 1_554 S
C219 O216 1.254 . S
H220 C193 0.949 . S
H221 C195 0.950 . S
H222 C202 0.949 . S
H223 C204 0.950 . S
C5 C88 3.463 . S
C18 C130 3.168 1_565 S
C160 C30 0.842 . S
C41 C194 1.246 . S
C151 C7 2.575 . S
C105 C16 2.636 1_565 S
C198 C29 1.475 1_556 S
C164 C38 2.078 . S
C8 C219 2.944 . S
C126 C27 2.220 . S
C40 C101 1.210 . S
C19 C185 2.298 . S
C117 C51 3.422 1_545 S
C62 C139 3.340 . S
C74 C169 1.001 . S
C84 C203 1.823 . S
C49 C122 2.882 1_546 S
C96 C63 2.272 . S
C207 C71 1.249 . S
C173 C85 0.967 . S
C52 C190 2.994 . S
C135 C73 1.496 . S
C92 C82 1.089 . S
C60 C156 3.112 . S
