# Generated by pormake.
# Topology bcu-b, (8,8)-cn, num edge types: 1
# Building blocks:
#     Node 0, Type 0, BuildingBlock: TAGTUT_clean_sbu_1, # of connection points: 8
#     Node 1, Type 1, BuildingBlock: TAGTUT_clean_sbu_1, # of connection points: 8
#     Edge 2, Type (0, 1), BuildingBlock: KIFKEQ_clean_linker_1, # of connection points: 2
#     Edge 3, Type (0, 1), BuildingBlock: KIFKEQ_clean_linker_1, # of connection points: 2
#     Edge 4, Type (0, 1), BuildingBlock: KIFKEQ_clean_linker_1, # of connection points: 2
#     Edge 5, Type (0, 1), BuildingBlock: KIFKEQ_clean_linker_1, # of connection points: 2
#     Edge 6, Type (0, 1), BuildingBlock: KIFKEQ_clean_linker_1, # of connection points: 2
#     Edge 7, Type (0, 1), BuildingBlock: KIFKEQ_clean_linker_1, # of connection points: 2
#     Edge 8, Type (0, 1), BuildingBlock: KIFKEQ_clean_linker_1, # of connection points: 2
#     Edge 9, Type (0, 1), BuildingBlock: KIFKEQ_clean_linker_1, # of connection points: 2
# Relax obj value: 0.017
# Max RMSD: 0.077
# Mean RMSD: 0.077
data_MOF--net-bcu-b--node1-TAGTUT_clean_sbu_1--node2-TAGTUT_clean_sbu_1--edge1-KIFKEQ_clean_linker_1
_symmetry_space_group_name_H-M    P1
_symmetry_Int_Tables_number       1
_symmetry_cell_setting            triclinic
loop_
_symmetry_equiv_pos_as_xyz
'x, y, z'
_cell_length_a     19.487392
_cell_length_b     18.895107
_cell_length_c     22.426359
_cell_angle_alpha  90.155052
_cell_angle_beta   92.429641
_cell_angle_gamma 108.2023
loop_
_atom_site_label
_atom_site_type_symbol
_atom_site_fract_x
_atom_site_fract_y
_atom_site_fract_z
_atom_type_partial_charge
C0 C 0.85713 0.12933 0.06065 0.0
C1 C 0.87548 0.11208 0.86999 0.0
C2 C 0.90521 0.84114 0.92194 0.0
Mg3 Mg 0.98484 0.15313 -0.02324 0.0
O4 O 0.96608 0.05332 -0.00228 0.0
Mg5 Mg 0.86711 0.98401 -0.02248 0.0
Mg6 Mg 1.0264 -0.00388 0.96584 0.0
O7 O 0.0863 0.93892 0.93397 0.0
Mg8 Mg 0.06585 0.83993 0.95781 0.0
Mg9 Mg 0.18585 0.00714 0.95386 0.0
C10 C 0.14695 0.15074 0.01025 0.0
C11 C 0.11317 0.08937 0.85531 0.0
O12 O 0.82953 0.06224 0.04002 0.0
O13 O 0.91639 0.17407 0.04259 0.0
O14 O 0.84779 0.0504 0.89615 0.0
O15 O 0.93436 0.15941 0.89008 0.0
O16 O 0.10153 0.18603 -0.00289 0.0
O17 O 0.12897 0.07909 0.00768 0.0
C18 C 0.94104 0.9062 0.07815 0.0
O19 O 1.00158 0.92553 0.05239 0.0
O20 O 0.88605 0.92206 0.05714 0.0
O21 O 0.22179 0.92628 0.89088 0.0
O22 O 0.13198 0.81666 0.89207 0.0
O23 O 0.20499 0.94042 0.03535 0.0
C24 C 0.19117 0.85873 0.87182 0.0
O25 O 0.11645 0.83362 0.04428 0.0
O26 O 0.94958 0.80552 0.93726 0.0
C27 C 0.17659 0.87996 0.0629 0.0
O28 O 0.92401 0.91282 0.92379 0.0
O29 O 0.05199 0.06773 0.88005 0.0
O30 O 0.16801 0.07239 0.87539 0.0
C31 C 0.37846 0.6716 0.51331 0.0
C32 C 0.4685 0.66666 0.34317 0.0
C33 C 0.40967 0.37052 0.38169 0.0
Mg34 Mg 0.5275 0.66881 0.47152 0.0
O35 O 0.47796 0.56717 0.4811 0.0
Mg36 Mg 0.38614 0.52285 0.43246 0.0
Mg37 Mg 0.52867 0.49379 0.46513 0.0
O38 O 0.57817 0.41942 0.44955 0.0
Mg39 Mg 0.52512 0.3194 0.46243 0.0
Mg40 Mg 0.66923 0.4621 0.49903 0.0
C41 C 0.64668 0.61765 0.54856 0.0
C42 C 0.67243 0.57492 0.39043 0.0
O43 O 0.34672 0.60944 0.48529 0.0
O44 O 0.44695 0.70359 0.51371 0.0
O45 O 0.42086 0.60653 0.35763 0.0
O46 O 0.52139 0.7003 0.37905 0.0
O47 O 0.62428 0.66942 0.52557 0.0
O48 O 0.61565 0.54816 0.53622 0.0
C49 C 0.38501 0.40665 0.53792 0.0
O50 O 0.45309 0.41788 0.53368 0.0
O51 O 0.35084 0.44025 0.50485 0.0
O52 O 0.70653 0.37131 0.44915 0.0
O53 O 0.60362 0.2798 0.42273 0.0
O54 O 0.63224 0.38185 0.57555 0.0
C55 C 0.67247 0.30874 0.42248 0.0
O56 O 0.5289 0.29115 0.55582 0.0
O57 O 0.42984 0.31836 0.40647 0.0
C58 C 0.58259 0.32397 0.59121 0.0
O59 O 0.44165 0.43988 0.3936 0.0
O60 O 0.60552 0.56897 0.39658 0.0
O61 O 0.70492 0.53998 0.42389 0.0
H62 H 0.23808 0.09529 0.07823 0.0
H63 H 0.20233 0.30157 0.02597 0.0
H64 H 0.30748 0.15754 0.16665 0.0
H65 H 0.26809 0.36241 0.1157 0.0
H66 H 0.41446 0.45451 0.28252 0.0
H67 H 0.36995 0.40715 0.18248 0.0
H68 H 0.25978 0.19178 0.25519 0.0
H69 H 0.30684 0.2384 0.35475 0.0
C70 C 0.24682 0.15437 0.08449 0.0
C71 C 0.21213 0.19269 0.0464 0.0
C72 C 0.28546 0.18976 0.1358 0.0
C73 C 0.28984 0.26378 0.14971 0.0
C74 C 0.26456 0.30495 0.10701 0.0
C75 C 0.22679 0.26988 0.05537 0.0
C76 C 0.37907 0.39762 0.27728 0.0
C77 C 0.36443 0.34984 0.32632 0.0
C78 C 0.35426 0.37024 0.21981 0.0
C79 C 0.31354 0.29495 0.2106 0.0
C80 C 0.2937 0.24921 0.26043 0.0
C81 C 0.31922 0.27625 0.31765 0.0
H82 H 0.8674 0.27058 0.0965 0.0
H83 H 0.78121 0.04 0.14598 0.0
H84 H 0.83027 0.30904 0.19039 0.0
H85 H 0.74765 0.0781 0.24111 0.0
H86 H 0.80838 0.36807 0.3793 0.0
H87 H 0.8561 0.32083 0.29422 0.0
H88 H 0.66625 0.12595 0.28492 0.0
H89 H 0.62135 0.17057 0.3712 0.0
C90 C 0.84013 0.22814 0.1274 0.0
C91 C 0.82623 0.1523 0.11353 0.0
C92 C 0.81994 0.25015 0.18173 0.0
C93 C 0.78662 0.19684 0.22396 0.0
C94 C 0.77219 0.12085 0.20957 0.0
C95 C 0.79112 0.09885 0.15479 0.0
C96 C 0.77815 0.31403 0.36022 0.0
C97 C 0.71062 0.27366 0.38164 0.0
C98 C 0.80483 0.28747 0.31074 0.0
C99 C 0.76425 0.22033 0.28154 0.0
C100 C 0.6994 0.17763 0.30599 0.0
C101 C 0.67333 0.20361 0.35562 0.0
H102 H 0.94801 0.76621 0.09727 0.0
H103 H 0.90214 0.95105 0.18107 0.0
H104 H 0.88422 0.68368 0.17517 0.0
H105 H 0.83931 0.86963 0.25904 0.0
H106 H 0.64259 0.68663 0.32565 0.0
H107 H 0.72095 0.76953 0.25522 0.0
H108 H 0.87911 0.65425 0.28228 0.0
H109 H 0.80129 0.57143 0.3513 0.0
C110 C 0.92742 0.7897 0.13401 0.0
C111 C 0.93049 0.86476 0.13389 0.0
C112 C 0.89003 0.74251 0.17811 0.0
C113 C 0.85514 0.76999 0.22229 0.0
C114 C 0.86399 0.84652 0.22476 0.0
C115 C 0.90121 0.89338 0.18092 0.0
C116 C 0.69377 0.67881 0.3162 0.0
C117 C 0.71571 0.62284 0.34449 0.0
C118 C 0.73901 0.7266 0.27636 0.0
C119 C 0.80665 0.71881 0.26379 0.0
C120 C 0.82745 0.6616 0.29089 0.0
C121 C 0.78271 0.61438 0.33075 0.0
H122 H 0.31374 0.95755 0.10491 0.0
H123 H 0.14217 0.75051 0.12632 0.0
H124 H 0.39592 0.91043 0.16558 0.0
H125 H 0.22391 0.70437 0.18848 0.0
H126 H 0.39356 0.60389 0.24121 0.0
H127 H 0.3259 0.66131 0.17386 0.0
H128 H 0.42584 0.87368 0.26342 0.0
H129 H 0.49508 0.81634 0.32969 0.0
C130 C 0.29296 0.90253 0.12356 0.0
C131 C 0.22125 0.85755 0.11008 0.0
C132 C 0.34036 0.87548 0.15834 0.0
C133 C 0.31722 0.80288 0.18074 0.0
C134 C 0.24432 0.7597 0.17033 0.0
C135 C 0.19698 0.7866 0.13539 0.0
C136 C 0.40303 0.66341 0.24506 0.0
C137 C 0.44942 0.70548 0.29091 0.0
C138 C 0.36323 0.69611 0.20721 0.0
C139 C 0.36842 0.77159 0.21456 0.0
C140 C 0.42008 0.81531 0.25667 0.0
C141 C 0.46046 0.78258 0.29434 0.0
H142 H 0.11547 0.74645 0.79642 0.0
H143 H 0.32665 0.90909 0.82591 0.0
H144 H 0.1527 0.70618 0.70453 0.0
H145 H 0.36601 0.86525 0.73473 0.0
H146 H 0.40339 0.81688 0.54528 0.0
H147 H 0.35568 0.8637 0.63032 0.0
H148 H 0.22087 0.63928 0.66525 0.0
H149 H 0.26567 0.59391 0.57838 0.0
C150 C 0.17067 0.77263 0.78397 0.0
C151 C 0.21839 0.83071 0.81896 0.0
C152 C 0.19211 0.74924 0.73097 0.0
C153 C 0.2625 0.78205 0.71181 0.0
C154 C 0.31084 0.83951 0.74731 0.0
C155 C 0.28875 0.86412 0.80003 0.0
C156 C 0.36194 0.77812 0.57029 0.0
C157 C 0.33788 0.70186 0.55511 0.0
C158 C 0.33547 0.80468 0.61966 0.0
C159 C 0.28536 0.75529 0.65568 0.0
C160 C 0.25874 0.67943 0.63846 0.0
C161 C 0.28419 0.65319 0.58837 0.0
H162 H 0.08578 0.05452 0.73739 0.0
H163 H 0.17942 0.2365 0.86212 0.0
H164 H 0.15142 0.13029 0.65677 0.0
H165 H 0.24557 0.3121 0.78214 0.0
H166 H 0.429 0.3704 0.64868 0.0
H167 H 0.35108 0.29553 0.7239 0.0
H168 H 0.16693 0.25051 0.59928 0.0
H169 H 0.24396 0.32504 0.52481 0.0
C170 C 0.11756 0.11198 0.74676 0.0
C171 C 0.12633 0.14065 0.80529 0.0
C172 C 0.15603 0.15489 0.70104 0.0
C173 C 0.20474 0.2264 0.71367 0.0
C174 C 0.20942 0.25667 0.77148 0.0
C175 C 0.17042 0.21416 0.81686 0.0
C176 C 0.37213 0.34365 0.63733 0.0
C177 C 0.34241 0.35402 0.58124 0.0
C178 C 0.32743 0.30158 0.68037 0.0
C179 C 0.25276 0.26823 0.66751 0.0
C180 C 0.22407 0.27573 0.61045 0.0
C181 C 0.26828 0.31854 0.56796 0.0
H182 H 0.73918 0.03337 0.827 0.0
H183 H 0.90848 0.24278 0.80821 0.0
H184 H 0.65596 0.08027 0.76763 0.0
H185 H 0.82578 0.28866 0.74701 0.0
H186 H 0.5551 0.1746 0.60521 0.0
H187 H 0.62467 0.1177 0.67135 0.0
H188 H 0.72336 0.33007 0.76133 0.0
H189 H 0.65559 0.38716 0.69375 0.0
C190 C 0.75929 0.08888 0.80913 0.0
C191 C 0.83063 0.13455 0.82304 0.0
C192 C 0.71125 0.11583 0.77509 0.0
C193 C 0.73342 0.18896 0.75373 0.0
C194 C 0.80604 0.2329 0.76444 0.0
C195 C 0.85397 0.20614 0.79877 0.0
C196 C 0.5894 0.2084 0.64071 0.0
C197 C 0.60022 0.28543 0.6441 0.0
C198 C 0.63001 0.17593 0.67831 0.0
C199 C 0.68158 0.21984 0.7204 0.0
C200 C 0.68619 0.29515 0.72795 0.0
C201 C 0.64625 0.32764 0.69006 0.0
H202 H 0.8498 0.69033 0.90621 0.0
H203 H 0.81818 0.89691 0.84941 0.0
H204 H 0.78732 0.62893 0.81555 0.0
H205 H 0.75179 0.83407 0.75998 0.0
H206 H 0.75117 0.74917 0.57365 0.0
H207 H 0.79892 0.79727 0.67276 0.0
H208 H 0.6875 0.58362 0.74772 0.0
H209 H 0.64263 0.53478 0.64815 0.0
C210 C 0.82695 0.72204 0.87551 0.0
C211 C 0.8417 0.79935 0.88381 0.0
C212 C 0.79107 0.68662 0.82329 0.0
C213 C 0.76768 0.72752 0.77919 0.0
C214 C 0.7724 0.80196 0.79193 0.0
C215 C 0.80922 0.8377 0.84383 0.0
C216 C 0.7389 0.71195 0.61115 0.0
C217 C 0.69318 0.63846 0.60326 0.0
C218 C 0.76476 0.73987 0.66812 0.0
C219 C 0.74462 0.69515 0.71848 0.0
C220 C 0.70356 0.61981 0.71002 0.0
C221 C 0.67852 0.59152 0.65279 0.0
loop_
_geom_bond_atom_site_label_1
_geom_bond_atom_site_label_2
_geom_bond_distance
_geom_bond_site_symmetry_2
_ccdc_geom_bond_type
C0 O12 1.241 . S
C0 O13 1.280 . S
C1 O14 1.277 . S
C1 O15 1.245 . S
C2 O26 1.247 . S
C2 O28 1.289 . S
Mg3 O4 1.926 . S
Mg3 O13 1.984 . S
Mg3 O15 1.988 1_554 S
Mg3 O16 2.061 1_655 S
O4 Mg3 1.926 . S
O4 Mg5 1.986 1_554 S
O4 Mg6 1.917 1_655 S
Mg5 O4 1.986 1_556 S
Mg5 O12 2.042 1_556 S
Mg5 O14 2.041 . S
Mg5 O20 2.038 1_546 S
Mg5 O28 2.238 1_545 S
Mg6 O4 1.917 1_455 S
Mg6 O7 1.917 1_544 S
Mg6 O17 2.106 . S
Mg6 O19 2.079 1_445 S
Mg6 O28 2.106 1_444 S
Mg6 O29 2.079 1_554 S
O7 Mg6 1.917 1_566 S
O7 Mg8 1.926 . S
O7 Mg9 1.986 1_556 S
Mg8 O7 1.926 . S
Mg8 O22 1.984 . S
Mg8 O25 1.988 1_556 S
Mg8 O26 2.061 1_455 S
Mg9 O7 1.986 1_554 S
Mg9 O17 2.238 1_565 S
Mg9 O21 2.042 1_554 S
Mg9 O23 2.041 . S
Mg9 O30 2.038 1_564 S
C10 O16 1.247 . S
C10 O17 1.289 . S
C11 O29 1.245 . S
C11 O30 1.274 . S
O12 C0 1.241 . S
O12 Mg5 2.042 1_554 S
O13 C0 1.280 . S
O13 Mg3 1.984 . S
O14 C1 1.277 . S
O14 Mg5 2.041 . S
O15 C1 1.245 . S
O15 Mg3 1.988 1_556 S
O16 Mg3 2.061 1_455 S
O16 C10 1.247 . S
O17 Mg6 2.106 . S
O17 Mg9 2.238 1_545 S
O17 C10 1.289 . S
C18 O19 1.245 . S
C18 O20 1.274 . S
O19 Mg6 2.079 1_665 S
O19 C18 1.245 . S
O20 Mg5 2.038 1_564 S
O20 C18 1.274 . S
O21 Mg9 2.042 1_556 S
O21 C24 1.241 . S
O22 Mg8 1.984 . S
O22 C24 1.280 . S
O23 Mg9 2.041 . S
O23 C27 1.277 . S
C24 O21 1.241 . S
C24 O22 1.280 . S
O25 Mg8 1.988 1_554 S
O25 C27 1.245 . S
O26 C2 1.247 . S
O26 Mg8 2.061 1_655 S
C27 O23 1.277 . S
C27 O25 1.245 . S
O28 C2 1.289 . S
O28 Mg5 2.238 1_565 S
O28 Mg6 2.106 1_666 S
O29 Mg6 2.079 1_556 S
O29 C11 1.245 . S
O30 Mg9 2.038 1_546 S
O30 C11 1.274 . S
C31 O43 1.241 . S
C31 O44 1.280 . S
C32 O45 1.277 . S
C32 O46 1.245 . S
C33 O57 1.247 . S
C33 O59 1.289 . S
Mg34 O35 1.926 . S
Mg34 O44 1.984 . S
Mg34 O46 1.988 . S
Mg34 O47 2.061 . S
O35 Mg34 1.926 . S
O35 Mg36 1.986 . S
O35 Mg37 1.917 . S
Mg36 O35 1.986 . S
Mg36 O43 2.042 . S
Mg36 O45 2.041 . S
Mg36 O51 2.038 . S
Mg36 O59 2.238 . S
Mg37 O35 1.917 . S
Mg37 O38 1.917 . S
Mg37 O48 2.106 . S
Mg37 O50 2.079 . S
Mg37 O59 2.106 . S
Mg37 O60 2.079 . S
O38 Mg37 1.917 . S
O38 Mg39 1.926 . S
O38 Mg40 1.986 . S
Mg39 O38 1.926 . S
Mg39 O53 1.984 . S
Mg39 O56 1.988 . S
Mg39 O57 2.061 . S
Mg40 O38 1.986 . S
Mg40 O48 2.238 . S
Mg40 O52 2.042 . S
Mg40 O54 2.041 . S
Mg40 O61 2.038 . S
C41 O47 1.247 . S
C41 O48 1.289 . S
C42 O60 1.245 . S
C42 O61 1.274 . S
O43 C31 1.241 . S
O43 Mg36 2.042 . S
O44 C31 1.280 . S
O44 Mg34 1.984 . S
O45 C32 1.277 . S
O45 Mg36 2.041 . S
O46 C32 1.245 . S
O46 Mg34 1.988 . S
O47 Mg34 2.061 . S
O47 C41 1.247 . S
O48 Mg37 2.106 . S
O48 Mg40 2.238 . S
O48 C41 1.289 . S
C49 O50 1.245 . S
C49 O51 1.274 . S
O50 Mg37 2.079 . S
O50 C49 1.245 . S
O51 Mg36 2.038 . S
O51 C49 1.274 . S
O52 Mg40 2.042 . S
O52 C55 1.241 . S
O53 Mg39 1.984 . S
O53 C55 1.280 . S
O54 Mg40 2.041 . S
O54 C58 1.277 . S
C55 O52 1.241 . S
C55 O53 1.280 . S
O56 Mg39 1.988 . S
O56 C58 1.245 . S
O57 C33 1.247 . S
O57 Mg39 2.061 . S
C58 O54 1.277 . S
C58 O56 1.245 . S
O59 C33 1.289 . S
O59 Mg36 2.238 . S
O59 Mg37 2.106 . S
O60 Mg37 2.079 . S
O60 C42 1.245 . S
O61 Mg40 2.038 . S
O61 C42 1.274 . S
H62 C70 0.950 . S
H63 C75 0.950 . S
H64 C72 0.950 . S
H65 C74 0.950 . S
H66 C76 0.950 . S
H67 C78 0.950 . S
H68 C80 0.950 . S
H69 C81 0.950 . S
C70 H62 0.950 . S
C70 C71 1.386 . S
C70 C72 1.391 . S
C71 C70 1.386 . S
C71 C75 1.393 . S
C72 H64 0.950 . S
C72 C70 1.391 . S
C72 C73 1.400 . S
C73 C72 1.400 . S
C73 C74 1.398 . S
C73 C79 1.491 . S
C74 H65 0.950 . S
C74 C73 1.398 . S
C74 C75 1.391 . S
C75 H63 0.950 . S
C75 C71 1.393 . S
C75 C74 1.391 . S
C76 H66 0.950 . S
C76 C77 1.386 . S
C76 C78 1.391 . S
C77 C76 1.386 . S
C77 C81 1.393 . S
C78 H67 0.950 . S
C78 C76 1.391 . S
C78 C79 1.400 . S
C79 C73 1.491 . S
C79 C78 1.400 . S
C79 C80 1.398 . S
C80 H68 0.950 . S
C80 C79 1.398 . S
C80 C81 1.391 . S
C81 H69 0.950 . S
C81 C77 1.393 . S
C81 C80 1.391 . S
H82 C90 0.950 . S
H83 C95 0.950 . S
H84 C92 0.950 . S
H85 C94 0.950 . S
H86 C96 0.950 . S
H87 C98 0.950 . S
H88 C100 0.950 . S
H89 C101 0.950 . S
C90 H82 0.950 . S
C90 C91 1.386 . S
C90 C92 1.391 . S
C91 C90 1.386 . S
C91 C95 1.393 . S
C92 H84 0.950 . S
C92 C90 1.391 . S
C92 C93 1.400 . S
C93 C92 1.400 . S
C93 C94 1.398 . S
C93 C99 1.491 . S
C94 H85 0.950 . S
C94 C93 1.398 . S
C94 C95 1.391 . S
C95 H83 0.950 . S
C95 C91 1.393 . S
C95 C94 1.391 . S
C96 H86 0.950 . S
C96 C97 1.386 . S
C96 C98 1.391 . S
C97 C96 1.386 . S
C97 C101 1.393 . S
C98 H87 0.950 . S
C98 C96 1.391 . S
C98 C99 1.400 . S
C99 C93 1.491 . S
C99 C98 1.400 . S
C99 C100 1.398 . S
C100 H88 0.950 . S
C100 C99 1.398 . S
C100 C101 1.391 . S
C101 H89 0.950 . S
C101 C97 1.393 . S
C101 C100 1.391 . S
H102 C110 0.950 . S
H103 C115 0.950 . S
H104 C112 0.950 . S
H105 C114 0.950 . S
H106 C116 0.950 . S
H107 C118 0.950 . S
H108 C120 0.950 . S
H109 C121 0.950 . S
C110 H102 0.950 . S
C110 C111 1.386 . S
C110 C112 1.391 . S
C111 C110 1.386 . S
C111 C115 1.393 . S
C112 H104 0.950 . S
C112 C110 1.391 . S
C112 C113 1.400 . S
C113 C112 1.400 . S
C113 C114 1.398 . S
C113 C119 1.491 . S
C114 H105 0.950 . S
C114 C113 1.398 . S
C114 C115 1.391 . S
C115 H103 0.950 . S
C115 C111 1.393 . S
C115 C114 1.391 . S
C116 H106 0.950 . S
C116 C117 1.386 . S
C116 C118 1.391 . S
C117 C116 1.386 . S
C117 C121 1.393 . S
C118 H107 0.950 . S
C118 C116 1.391 . S
C118 C119 1.400 . S
C119 C113 1.491 . S
C119 C118 1.400 . S
C119 C120 1.398 . S
C120 H108 0.950 . S
C120 C119 1.398 . S
C120 C121 1.391 . S
C121 H109 0.950 . S
C121 C117 1.393 . S
C121 C120 1.391 . S
H122 C130 0.950 . S
H123 C135 0.950 . S
H124 C132 0.950 . S
H125 C134 0.950 . S
H126 C136 0.950 . S
H127 C138 0.950 . S
H128 C140 0.950 . S
H129 C141 0.950 . S
C130 H122 0.950 . S
C130 C131 1.386 . S
C130 C132 1.391 . S
C131 C130 1.386 . S
C131 C135 1.393 . S
C132 H124 0.950 . S
C132 C130 1.391 . S
C132 C133 1.400 . S
C133 C132 1.400 . S
C133 C134 1.398 . S
C133 C139 1.491 . S
C134 H125 0.950 . S
C134 C133 1.398 . S
C134 C135 1.391 . S
C135 H123 0.950 . S
C135 C131 1.393 . S
C135 C134 1.391 . S
C136 H126 0.950 . S
C136 C137 1.386 . S
C136 C138 1.391 . S
C137 C136 1.386 . S
C137 C141 1.393 . S
C138 H127 0.950 . S
C138 C136 1.391 . S
C138 C139 1.400 . S
C139 C133 1.491 . S
C139 C138 1.400 . S
C139 C140 1.398 . S
C140 H128 0.950 . S
C140 C139 1.398 . S
C140 C141 1.391 . S
C141 H129 0.950 . S
C141 C137 1.393 . S
C141 C140 1.391 . S
H142 C150 0.950 . S
H143 C155 0.950 . S
H144 C152 0.950 . S
H145 C154 0.950 . S
H146 C156 0.950 . S
H147 C158 0.950 . S
H148 C160 0.950 . S
H149 C161 0.950 . S
C150 H142 0.950 . S
C150 C151 1.386 . S
C150 C152 1.391 . S
C151 C150 1.386 . S
C151 C155 1.393 . S
C152 H144 0.950 . S
C152 C150 1.391 . S
C152 C153 1.400 . S
C153 C152 1.400 . S
C153 C154 1.398 . S
C153 C159 1.491 . S
C154 H145 0.950 . S
C154 C153 1.398 . S
C154 C155 1.391 . S
C155 H143 0.950 . S
C155 C151 1.393 . S
C155 C154 1.391 . S
C156 H146 0.950 . S
C156 C157 1.386 . S
C156 C158 1.391 . S
C157 C156 1.386 . S
C157 C161 1.393 . S
C158 H147 0.950 . S
C158 C156 1.391 . S
C158 C159 1.400 . S
C159 C153 1.491 . S
C159 C158 1.400 . S
C159 C160 1.398 . S
C160 H148 0.950 . S
C160 C159 1.398 . S
C160 C161 1.391 . S
C161 H149 0.950 . S
C161 C157 1.393 . S
C161 C160 1.391 . S
H162 C170 0.950 . S
H163 C175 0.950 . S
H164 C172 0.950 . S
H165 C174 0.950 . S
H166 C176 0.950 . S
H167 C178 0.950 . S
H168 C180 0.950 . S
H169 C181 0.950 . S
C170 H162 0.950 . S
C170 C171 1.386 . S
C170 C172 1.391 . S
C171 C170 1.386 . S
C171 C175 1.393 . S
C172 H164 0.950 . S
C172 C170 1.391 . S
C172 C173 1.400 . S
C173 C172 1.400 . S
C173 C174 1.398 . S
C173 C179 1.491 . S
C174 H165 0.950 . S
C174 C173 1.398 . S
C174 C175 1.391 . S
C175 H163 0.950 . S
C175 C171 1.393 . S
C175 C174 1.391 . S
C176 H166 0.950 . S
C176 C177 1.386 . S
C176 C178 1.391 . S
C177 C176 1.386 . S
C177 C181 1.393 . S
C178 H167 0.950 . S
C178 C176 1.391 . S
C178 C179 1.400 . S
C179 C173 1.491 . S
C179 C178 1.400 . S
C179 C180 1.398 . S
C180 H168 0.950 . S
C180 C179 1.398 . S
C180 C181 1.391 . S
C181 H169 0.950 . S
C181 C177 1.393 . S
C181 C180 1.391 . S
H182 C190 0.950 . S
H183 C195 0.950 . S
H184 C192 0.950 . S
H185 C194 0.950 . S
H186 C196 0.950 . S
H187 C198 0.950 . S
H188 C200 0.950 . S
H189 C201 0.950 . S
C190 H182 0.950 . S
C190 C191 1.386 . S
C190 C192 1.391 . S
C191 C190 1.386 . S
C191 C195 1.393 . S
C192 H184 0.950 . S
C192 C190 1.391 . S
C192 C193 1.400 . S
C193 C192 1.400 . S
C193 C194 1.398 . S
C193 C199 1.491 . S
C194 H185 0.950 . S
C194 C193 1.398 . S
C194 C195 1.391 . S
C195 H183 0.950 . S
C195 C191 1.393 . S
C195 C194 1.391 . S
C196 H186 0.950 . S
C196 C197 1.386 . S
C196 C198 1.391 . S
C197 C196 1.386 . S
C197 C201 1.393 . S
C198 H187 0.950 . S
C198 C196 1.391 . S
C198 C199 1.400 . S
C199 C193 1.491 . S
C199 C198 1.400 . S
C199 C200 1.398 . S
C200 H188 0.950 . S
C200 C199 1.398 . S
C200 C201 1.391 . S
C201 H189 0.950 . S
C201 C197 1.393 . S
C201 C200 1.391 . S
H202 C210 0.950 . S
H203 C215 0.950 . S
H204 C212 0.950 . S
H205 C214 0.950 . S
H206 C216 0.950 . S
H207 C218 0.950 . S
H208 C220 0.950 . S
H209 C221 0.950 . S
C210 H202 0.950 . S
C210 C211 1.386 . S
C210 C212 1.391 . S
C211 C210 1.386 . S
C211 C215 1.393 . S
C212 H204 0.950 . S
C212 C210 1.391 . S
C212 C213 1.400 . S
C213 C212 1.400 . S
C213 C214 1.398 . S
C213 C219 1.491 . S
C214 H205 0.950 . S
C214 C213 1.398 . S
C214 C215 1.391 . S
C215 H203 0.950 . S
C215 C211 1.393 . S
C215 C214 1.391 . S
C216 H206 0.950 . S
C216 C217 1.386 . S
C216 C218 1.391 . S
C217 C216 1.386 . S
C217 C221 1.393 . S
C218 H207 0.950 . S
C218 C216 1.391 . S
C218 C219 1.400 . S
C219 C213 1.491 . S
C219 C218 1.400 . S
C219 C220 1.398 . S
C220 H208 0.950 . S
C220 C219 1.398 . S
C220 C221 1.391 . S
C221 H209 0.950 . S
C221 C217 1.393 . S
C221 C220 1.391 . S
C71 C10 0.878 . S
C77 C33 0.875 . S
C91 C0 1.577 . S
C97 C55 1.576 . S
C111 C18 1.548 . S
C117 C42 1.548 . S
C131 C27 1.738 . S
C137 C32 1.736 . S
C151 C24 1.580 . S
C157 C31 1.581 . S
C177 C49 1.549 . S
C171 C11 1.550 . S
C191 C1 1.732 . S
C197 C58 1.734 . S
C217 C41 0.872 . S
C211 C2 0.875 . S
