# Generated by pormake.
# Topology pts, (4,4)-cn, num edge types: 1
# Building blocks:
#     Node 0, Type 0, BuildingBlock: MUDLON_clean_sbu_0, # of connection points: 4
#     Node 1, Type 0, BuildingBlock: MUDLON_clean_sbu_0, # of connection points: 4
#     Node 2, Type 1, BuildingBlock: AZAVOO_clean_sbu_0, # of connection points: 4
#     Node 3, Type 1, BuildingBlock: AZAVOO_clean_sbu_0, # of connection points: 4
#     Edge 4, Type (0, 1), BuildingBlock: EZIPEK_clean_linker_0, # of connection points: 2
#     Edge 5, Type (0, 1), BuildingBlock: EZIPEK_clean_linker_0, # of connection points: 2
#     Edge 6, Type (0, 1), BuildingBlock: EZIPEK_clean_linker_0, # of connection points: 2
#     Edge 7, Type (0, 1), BuildingBlock: EZIPEK_clean_linker_0, # of connection points: 2
#     Edge 8, Type (0, 1), BuildingBlock: EZIPEK_clean_linker_0, # of connection points: 2
#     Edge 9, Type (0, 1), BuildingBlock: EZIPEK_clean_linker_0, # of connection points: 2
#     Edge 10, Type (0, 1), BuildingBlock: EZIPEK_clean_linker_0, # of connection points: 2
#     Edge 11, Type (0, 1), BuildingBlock: EZIPEK_clean_linker_0, # of connection points: 2
# Relax obj value: 0.032
# Max RMSD: 0.087
# Mean RMSD: 0.073
data_MOF--net-pts--node1-MUDLON_clean_sbu_0--node2-AZAVOO_clean_sbu_0--edge1-EZIPEK_clean_linker_0
_symmetry_space_group_name_H-M    P1
_symmetry_Int_Tables_number       1
_symmetry_cell_setting            triclinic
loop_
_symmetry_equiv_pos_as_xyz
'x, y, z'
_cell_length_a     17.007735
_cell_length_b     17.71542
_cell_length_c     27.887745
_cell_angle_alpha  90.353252
_cell_angle_beta   98.250577
_cell_angle_gamma 89.586575
loop_
_atom_site_label
_atom_site_type_symbol
_atom_site_fract_x
_atom_site_fract_y
_atom_site_fract_z
_atom_type_partial_charge
Mg0 Mg 0.56967 0.06541 0.04333 0.0
C1 C 0.44446 0.04563 0.96317 0.0
O2 O 0.44644 0.11811 0.97353 0.0
C3 C 0.69409 0.05184 0.12489 0.0
O4 O 0.69208 0.12329 0.11237 0.0
C5 C 0.44896 0.0728 0.10137 0.0
O6 O 0.46607 0.00202 0.09264 0.0
O7 O 0.48612 0.12445 0.08253 0.0
O8 O 0.49325 0.00163 0.98842 0.0
O9 O 0.65194 0.11952 1.00175 0.0
C10 C 0.68794 0.06597 0.98311 0.0
O11 O 0.67121 -0.00386 0.99344 0.0
O12 O 0.64607 0.00632 0.10054 0.0
Mg13 Mg 0.06476 0.49046 0.54278 0.0
C14 C 0.13133 0.56717 0.64097 0.0
O15 O 0.13679 0.4992 0.65946 0.0
C16 C 0.17736 0.39463 0.48299 0.0
O17 O 0.21609 0.45507 0.47326 0.0
C18 C 0.07143 0.60037 0.46796 0.0
O19 O 0.14212 0.5977 0.49405 0.0
O20 O 0.01723 0.5578 0.47966 0.0
O21 O 0.11511 0.57543 0.59535 0.0
O22 O 0.9874 0.42118 0.58014 0.0
C23 C 0.03043 0.37233 0.60526 0.0
O24 O 0.10759 0.37287 0.60535 0.0
O25 O 0.12607 0.39847 0.51172 0.0
Mg26 Mg 0.13545 0.97205 0.31057 0.0
O27 O 0.00839 -0.00671 0.2744 0.0
O28 O 0.9272 -0.01172 0.33059 0.0
Mg29 Mg 0.00497 0.96108 0.40329 0.0
C30 C 0.93915 -0.00324 0.28677 0.0
C31 C 0.25618 0.02632 0.24631 0.0
O32 O 0.30232 0.00704 0.28631 0.0
O33 O 0.14406 0.08834 0.34551 0.0
O34 O 0.06949 0.07569 0.4049 0.0
O35 O 0.11778 0.84799 0.29759 0.0
O36 O 0.09502 0.90685 0.36431 0.0
C37 C 0.11647 0.11371 0.38262 0.0
C38 C 0.095 0.8449 0.33991 0.0
O39 O 0.18147 0.01955 0.2442 0.0
Mg40 Mg 1.0037 0.95836 0.77291 0.0
O41 O 0.12873 0.97916 0.81289 0.0
O42 O 0.21509 0.96811 0.75984 0.0
Mg43 Mg 0.144 0.94032 0.68538 0.0
C44 C 0.19948 0.97981 0.80274 0.0
C45 C 0.8776 0.01402 0.8354 0.0
O46 O 0.83183 -0.00705 0.79564 0.0
O47 O 0.99907 0.07358 0.73709 0.0
O48 O 0.08007 0.05606 0.6813 0.0
O49 O 0.01913 0.83372 0.78625 0.0
O50 O 0.04959 0.89146 0.72142 0.0
C51 C 0.03163 0.09674 0.70149 0.0
C52 C 0.04832 0.83041 0.74587 0.0
O53 O 0.95249 0.00822 0.83751 0.0
C54 C 0.40311 0.1233 0.17757 0.0
C55 C 0.38567 0.08773 0.13169 0.0
C56 C 0.27283 0.02266 0.15761 0.0
C57 C 0.29214 0.05517 0.20453 0.0
N58 N 0.35696 0.15568 0.25354 0.0
N59 N 0.28769 0.03024 0.07256 0.0
C60 C 0.35131 0.11195 0.21267 0.0
C61 C 0.31438 0.04689 0.11994 0.0
N62 N 0.47089 0.16444 0.18858 0.0
N63 N 0.22009 0.96451 0.14963 0.0
H64 H 0.31711 0.04934 0.04459 0.0
H65 H 0.23278 0.00552 0.06098 0.0
H66 H 0.19054 0.94183 0.17633 0.0
H67 H 0.21101 0.9339 0.11731 0.0
H68 H 0.49236 0.18291 0.22351 0.0
H69 H 0.50737 0.17778 0.16293 0.0
H70 H 0.39436 0.20211 0.25959 0.0
H71 H 0.31807 0.1503 0.27905 0.0
C72 C 0.97218 0.24384 0.60545 0.0
C73 C 0.99758 0.31036 0.63128 0.0
C74 C 0.02919 0.23881 0.70649 0.0
C75 C 0.00879 0.17141 0.68003 0.0
N76 N 0.93732 0.11164 0.60914 0.0
N77 N 0.02425 0.37599 0.70718 0.0
C78 C 0.97219 0.17468 0.631 0.0
C79 C 0.01678 0.30923 0.68232 0.0
N80 N 0.95314 0.24604 0.55619 0.0
N81 N 0.06524 0.23539 0.7535 0.0
H82 H 0.01366 0.42765 0.68957 0.0
H83 H 0.03251 0.37993 0.74483 0.0
H84 H 0.07551 0.18485 0.7724 0.0
H85 H 0.08955 0.28209 0.77292 0.0
H86 H 0.94435 0.19803 0.53441 0.0
H87 H 0.94937 0.29649 0.53686 0.0
H88 H 0.90378 0.11182 0.57483 0.0
H89 H 0.93561 0.06045 0.62729 0.0
C90 C 0.7485 0.07013 0.21224 0.0
C91 C 0.7486 0.02805 0.16874 0.0
C92 C 0.86153 0.95376 0.20809 0.0
C93 C 0.87012 0.00499 0.24794 0.0
N94 N 0.82596 0.11775 0.28557 0.0
N95 N 0.81055 0.93356 0.12345 0.0
C96 C 0.8143 0.06442 0.24967 0.0
C97 C 0.80605 0.97026 0.16623 0.0
N98 N 0.68431 0.11414 0.21827 0.0
N99 N 0.90455 0.88804 0.21085 0.0
H100 H 0.77091 0.94318 0.09197 0.0
H101 H 0.85744 0.89771 0.11823 0.0
H102 H 0.9437 0.87257 0.24156 0.0
H103 H 0.89511 0.84532 0.18486 0.0
H104 H 0.67748 0.14056 0.2509 0.0
H105 H 0.63386 0.11721 0.19225 0.0
H106 H 0.79188 0.16688 0.28537 0.0
H107 H 0.87392 0.11648 0.31337 0.0
C108 C 0.03148 0.6436 0.67785 0.0
C109 C 0.11217 0.63083 0.67197 0.0
C110 C 0.15224 0.74013 0.72383 0.0
C111 C 0.07099 0.7577 0.72503 0.0
N112 N 0.93228 0.73099 0.69988 0.0
N113 N 0.24932 0.66797 0.68616 0.0
C114 C 0.01032 0.71028 0.70159 0.0
C115 C 0.17273 0.67923 0.69427 0.0
N116 N 0.975 0.59153 0.66099 0.0
N117 N 0.2095 0.78053 0.75205 0.0
H118 H 0.26623 0.62256 0.66582 0.0
H119 H 0.29513 0.70575 0.69693 0.0
H120 H 0.19556 0.82381 0.77487 0.0
H121 H 0.26976 0.76711 0.75633 0.0
H122 H 0.91733 0.59266 0.66942 0.0
H123 H 0.987 0.54366 0.64132 0.0
H124 H 0.88572 0.70439 0.67804 0.0
H125 H 0.91389 0.77829 0.71788 0.0
C126 C 0.33082 0.96367 0.92534 0.0
C127 C 0.38913 0.01887 0.92047 0.0
C128 C 0.32209 0.04969 0.83907 0.0
C129 C 0.26609 -0.00816 0.84269 0.0
N130 N 0.22862 0.88169 0.88474 0.0
N131 N 0.45311 0.09802 0.86786 0.0
C132 C 0.27384 0.94514 0.8845 0.0
C133 C 0.3887 0.05672 0.87574 0.0
N134 N 0.32723 0.93136 0.96933 0.0
N135 N 0.30969 0.10069 0.80211 0.0
H136 H 0.50415 0.10181 0.89336 0.0
H137 H 0.45939 0.12109 0.83435 0.0
H138 H 0.26012 0.09957 0.77536 0.0
H139 H 0.34441 0.14863 0.80074 0.0
H140 H 0.27986 0.89828 0.97641 0.0
H141 H 0.36856 0.94189 0.99993 0.0
H142 H 0.23785 0.84137 0.91204 0.0
H143 H 0.18678 0.86538 0.85558 0.0
C144 C 0.22962 0.2713 0.45492 0.0
C145 C 0.1711 0.32904 0.44953 0.0
C146 C 0.08167 0.24916 0.3942 0.0
C147 C 0.13898 0.19035 0.40085 0.0
N148 N 0.27284 0.14846 0.42892 0.0
N149 N 0.05017 0.38103 0.40608 0.0
C150 C 0.21506 0.20268 0.4282 0.0
C151 C 0.09989 0.32043 0.41646 0.0
N152 N 0.29711 0.28085 0.48739 0.0
N153 N 0.00897 0.23597 0.36762 0.0
H154 H 0.06111 0.43383 0.42223 0.0
H155 H 1.00151 0.38119 0.37881 0.0
H156 H 0.99562 0.18616 0.34809 0.0
H157 H 0.96063 0.2726 0.36643 0.0
H158 H 0.33838 0.23819 0.49755 0.0
H159 H 0.31022 0.33148 0.50606 0.0
H160 H 0.33169 0.15638 0.44422 0.0
H161 H 0.26332 0.09666 0.41116 0.0
C162 C 0.73082 0.11258 0.90546 0.0
C163 C 0.74964 0.07779 0.95135 0.0
C164 C 0.86146 0.01068 0.92407 0.0
C165 C 0.84121 0.04297 0.87734 0.0
N166 N 0.77457 0.14299 0.8288 0.0
N167 N 0.84888 0.01933 1.00945 0.0
C168 C 0.78157 0.10001 0.86973 0.0
C169 C 0.82094 0.03587 0.96229 0.0
N170 N 0.66274 0.15421 0.89503 0.0
N171 N 0.91433 0.95195 0.93138 0.0
H172 H 0.8204 0.039 0.03792 0.0
H173 H 0.90399 -0.00596 1.0204 0.0
H174 H 0.94309 0.9286 0.90423 0.0
H175 H 0.92417 0.92149 0.96354 0.0
H176 H 0.64031 0.17208 0.8602 0.0
H177 H 0.62682 0.16845 0.921 0.0
H178 H 0.73697 0.18973 0.82313 0.0
H179 H 0.8125 0.13663 0.80275 0.0
C180 C 1.00294 0.7096 0.42001 0.0
C181 C 0.05991 0.65028 0.42479 0.0
C182 C 0.1333 0.71226 0.36688 0.0
C183 C 0.07673 0.77206 0.36211 0.0
N184 N 0.94357 0.81183 0.36959 0.0
N185 N 0.15833 0.58139 0.38809 0.0
C186 C 0.00684 0.76567 0.3841 0.0
C187 C 0.11796 0.64708 0.39312 0.0
N188 N 0.94803 0.71513 0.4511 0.0
N189 N 0.20431 0.71914 0.3498 0.0
H190 H 0.14501 0.53204 0.40522 0.0
H191 H 0.19692 0.57385 0.36258 0.0
H192 H 0.22059 0.76661 0.33186 0.0
H193 H 0.25048 0.68011 0.35749 0.0
H194 H 0.91129 0.76219 0.45251 0.0
H195 H 0.94259 0.67503 0.47756 0.0
H196 H 0.88873 0.80642 0.38172 0.0
H197 H 0.94366 0.84901 0.3408 0.0
loop_
_geom_bond_atom_site_label_1
_geom_bond_atom_site_label_2
_geom_bond_distance
_geom_bond_site_symmetry_2
_ccdc_geom_bond_type
Mg0 O7 2.141 . S
Mg0 O8 2.048 1_554 S
Mg0 O9 2.048 1_554 S
Mg0 O12 2.141 . S
C1 O2 1.314 . S
C1 O8 1.194 1_565 S
O2 C1 1.314 . S
C3 O4 1.245 . S
C3 O12 1.289 1_565 S
O4 C3 1.245 . S
C5 O6 1.245 . S
C5 O7 1.289 1_565 S
O6 C5 1.245 . S
O7 Mg0 2.141 . S
O7 C5 1.289 1_545 S
O8 Mg0 2.048 1_556 S
O8 C1 1.194 1_545 S
O9 Mg0 2.048 1_556 S
O9 C10 1.194 1_545 S
C10 O9 1.194 1_565 S
C10 O11 1.314 . S
O11 C10 1.314 . S
O12 Mg0 2.141 . S
O12 C3 1.289 1_545 S
Mg13 O20 2.141 . S
Mg13 O21 2.048 . S
Mg13 O22 2.048 . S
Mg13 O25 2.141 . S
C14 O15 1.313 . S
C14 O21 1.195 . S
O15 C14 1.313 . S
C16 O17 1.245 . S
C16 O25 1.289 . S
O17 C16 1.245 . S
C18 O19 1.245 . S
C18 O20 1.289 . S
O19 C18 1.245 . S
O20 Mg13 2.141 . S
O20 C18 1.289 . S
O21 Mg13 2.048 . S
O21 C14 1.195 . S
O22 Mg13 2.048 . S
O22 C23 1.195 . S
C23 O22 1.195 . S
C23 O24 1.313 . S
O24 C23 1.313 . S
O25 Mg13 2.141 . S
O25 C16 1.289 . S
Mg26 O27 2.028 . S
Mg26 O33 1.986 . S
Mg26 O35 2.114 1_545 S
Mg26 O36 2.251 1_545 S
Mg26 O39 2.010 . S
O27 Mg26 2.028 . S
O27 C30 1.250 1_455 S
O28 Mg29 2.028 . S
O28 C30 1.248 . S
Mg29 O28 2.028 . S
Mg29 O34 2.032 1_655 S
Mg29 O36 2.079 1_645 S
C30 O27 1.250 1_655 S
C30 O28 1.248 . S
C31 O32 1.264 . S
C31 O39 1.249 . S
O32 C31 1.264 . S
O33 Mg26 1.986 . S
O33 C37 1.246 . S
O34 Mg29 2.032 1_455 S
O34 C37 1.259 . S
O35 Mg26 2.114 1_565 S
O35 C38 1.252 . S
O36 Mg26 2.251 1_565 S
O36 Mg29 2.079 1_465 S
O36 C38 1.273 . S
C37 O33 1.246 . S
C37 O34 1.259 . S
C38 O35 1.252 . S
C38 O36 1.273 . S
O39 Mg26 2.010 . S
O39 C31 1.249 . S
Mg40 O41 2.028 . S
Mg40 O47 1.986 . S
Mg40 O49 2.114 1_545 S
Mg40 O50 2.251 1_545 S
Mg40 O53 2.010 1_455 S
O41 Mg40 2.028 . S
O41 C44 1.250 . S
O42 Mg43 2.028 . S
O42 C44 1.248 . S
Mg43 O42 2.028 . S
Mg43 O48 2.032 . S
Mg43 O50 2.079 1_545 S
C44 O41 1.250 . S
C44 O42 1.248 . S
C45 O46 1.264 . S
C45 O53 1.249 . S
O46 C45 1.264 . S
O47 Mg40 1.986 . S
O47 C51 1.246 . S
O48 Mg43 2.032 . S
O48 C51 1.259 . S
O49 Mg40 2.114 1_565 S
O49 C52 1.252 . S
O50 Mg40 2.251 1_565 S
O50 Mg43 2.079 1_565 S
O50 C52 1.273 . S
C51 O47 1.246 . S
C51 O48 1.259 . S
C52 O49 1.252 . S
C52 O50 1.273 . S
O53 Mg40 2.010 1_655 S
O53 C45 1.249 . S
C54 C55 1.363 . S
C54 C60 1.379 . S
C54 N62 1.356 . S
C55 C54 1.363 . S
C55 C61 1.363 1_545 S
C56 C57 1.363 1_565 S
C56 C61 1.379 . S
C56 N63 1.356 . S
C57 C56 1.363 1_545 S
C57 C60 1.363 . S
N58 C60 1.356 . S
N58 H70 0.984 . S
N58 H71 0.985 . S
N59 C61 1.356 . S
N59 H64 0.984 . S
N59 H65 0.985 . S
C60 C54 1.379 . S
C60 C57 1.363 . S
C60 N58 1.356 . S
C61 C55 1.363 1_565 S
C61 C56 1.379 . S
C61 N59 1.356 . S
N62 C54 1.356 . S
N62 H68 0.984 . S
N62 H69 0.984 . S
N63 C56 1.356 . S
N63 H66 0.984 . S
N63 H67 0.985 . S
H64 N59 0.984 . S
H65 N59 0.985 . S
H66 N63 0.984 . S
H67 N63 0.985 . S
H68 N62 0.984 . S
H69 N62 0.984 . S
H70 N58 0.984 . S
H71 N58 0.985 . S
C72 C73 1.363 . S
C72 C78 1.379 . S
C72 N80 1.356 1_455 S
C73 C72 1.363 . S
C73 C79 1.363 . S
C74 C75 1.363 . S
C74 C79 1.379 . S
C74 N81 1.356 . S
C75 C74 1.363 . S
C75 C78 1.363 . S
N76 C78 1.356 1_655 S
N76 H88 0.984 . S
N76 H89 0.985 . S
N77 C79 1.356 . S
N77 H82 0.984 . S
N77 H83 0.985 . S
C78 C72 1.379 . S
C78 C75 1.363 . S
C78 N76 1.356 1_455 S
C79 C73 1.363 . S
C79 C74 1.379 . S
C79 N77 1.356 . S
N80 C72 1.356 1_655 S
N80 H86 0.984 . S
N80 H87 0.984 . S
N81 C74 1.356 . S
N81 H84 0.984 . S
N81 H85 0.985 . S
H82 N77 0.984 . S
H83 N77 0.985 . S
H84 N81 0.984 . S
H85 N81 0.985 . S
H86 N80 0.984 . S
H87 N80 0.984 . S
H88 N76 0.984 . S
H89 N76 0.985 . S
C90 C91 1.363 . S
C90 C96 1.379 . S
C90 N98 1.356 . S
C91 C90 1.363 . S
C91 C97 1.363 1_545 S
C92 C93 1.363 1_565 S
C92 C97 1.379 . S
C92 N99 1.356 . S
C93 C92 1.363 1_545 S
C93 C96 1.363 . S
N94 C96 1.356 . S
N94 H106 0.984 . S
N94 H107 0.985 1_655 S
N95 C97 1.356 . S
N95 H100 0.984 . S
N95 H101 0.985 . S
C96 C90 1.379 . S
C96 C93 1.363 . S
C96 N94 1.356 . S
C97 C91 1.363 1_565 S
C97 C92 1.379 . S
C97 N95 1.356 . S
N98 C90 1.356 . S
N98 H104 0.984 . S
N98 H105 0.984 . S
N99 C92 1.356 . S
N99 H102 0.984 . S
N99 H103 0.985 . S
H100 N95 0.984 . S
H101 N95 0.985 . S
H102 N99 0.984 . S
H103 N99 0.985 . S
H104 N98 0.984 . S
H105 N98 0.984 . S
H106 N94 0.984 . S
H107 N94 0.985 1_455 S
C108 C109 1.363 . S
C108 C114 1.379 . S
C108 N116 1.356 1_455 S
C109 C108 1.363 . S
C109 C115 1.363 . S
C110 C111 1.363 . S
C110 C115 1.379 . S
C110 N117 1.356 . S
C111 C110 1.363 . S
C111 C114 1.363 . S
N112 C114 1.356 1_655 S
N112 H124 0.984 . S
N112 H125 0.985 . S
N113 C115 1.356 . S
N113 H118 0.984 . S
N113 H119 0.985 . S
C114 C108 1.379 . S
C114 C111 1.363 . S
C114 N112 1.356 1_455 S
C115 C109 1.363 . S
C115 C110 1.379 . S
C115 N113 1.356 . S
N116 C108 1.356 1_655 S
N116 H122 0.984 . S
N116 H123 0.984 . S
N117 C110 1.356 . S
N117 H120 0.984 . S
N117 H121 0.985 . S
H118 N113 0.984 . S
H119 N113 0.985 . S
H120 N117 0.984 . S
H121 N117 0.985 . S
H122 N116 0.984 . S
H123 N116 0.984 . S
H124 N112 0.984 . S
H125 N112 0.985 . S
C126 C127 1.363 1_565 S
C126 C132 1.379 . S
C126 N134 1.356 . S
C127 C126 1.363 1_545 S
C127 C133 1.363 . S
C128 C129 1.363 . S
C128 C133 1.379 . S
C128 N135 1.356 . S
C129 C128 1.363 . S
C129 C132 1.363 1_545 S
N130 C132 1.356 . S
N130 H142 0.984 . S
N130 H143 0.985 . S
N131 C133 1.356 . S
N131 H136 0.984 . S
N131 H137 0.985 . S
C132 C126 1.379 . S
C132 C129 1.363 1_565 S
C132 N130 1.356 . S
C133 C127 1.363 . S
C133 C128 1.379 . S
C133 N131 1.356 . S
N134 C126 1.356 . S
N134 H140 0.984 . S
N134 H141 0.984 . S
N135 C128 1.356 . S
N135 H138 0.984 . S
N135 H139 0.985 . S
H136 N131 0.984 . S
H137 N131 0.985 . S
H138 N135 0.984 . S
H139 N135 0.985 . S
H140 N134 0.984 . S
H141 N134 0.984 . S
H142 N130 0.984 . S
H143 N130 0.985 . S
C144 C145 1.363 . S
C144 C150 1.379 . S
C144 N152 1.356 . S
C145 C144 1.363 . S
C145 C151 1.363 . S
C146 C147 1.363 . S
C146 C151 1.379 . S
C146 N153 1.356 1_455 S
C147 C146 1.363 . S
C147 C150 1.363 . S
N148 C150 1.356 . S
N148 H160 0.984 . S
N148 H161 0.985 . S
N149 C151 1.356 1_655 S
N149 H154 0.984 . S
N149 H155 0.985 . S
C150 C144 1.379 . S
C150 C147 1.363 . S
C150 N148 1.356 . S
C151 C145 1.363 . S
C151 C146 1.379 . S
C151 N149 1.356 1_455 S
N152 C144 1.356 . S
N152 H158 0.984 . S
N152 H159 0.984 . S
N153 C146 1.356 1_655 S
N153 H156 0.984 1_655 S
N153 H157 0.985 . S
H154 N149 0.984 . S
H155 N149 0.985 . S
H156 N153 0.984 1_455 S
H157 N153 0.985 . S
H158 N152 0.984 . S
H159 N152 0.984 . S
H160 N148 0.984 . S
H161 N148 0.985 . S
C162 C163 1.363 . S
C162 C168 1.379 . S
C162 N170 1.356 . S
C163 C162 1.363 . S
C163 C169 1.363 1_545 S
C164 C165 1.363 1_565 S
C164 C169 1.379 . S
C164 N171 1.356 . S
C165 C164 1.363 1_545 S
C165 C168 1.363 . S
N166 C168 1.356 . S
N166 H178 0.984 . S
N166 H179 0.985 . S
N167 C169 1.356 . S
N167 H172 0.984 . S
N167 H173 0.985 . S
C168 C162 1.379 . S
C168 C165 1.363 . S
C168 N166 1.356 . S
C169 C163 1.363 1_565 S
C169 C164 1.379 . S
C169 N167 1.356 . S
N170 C162 1.356 . S
N170 H176 0.984 . S
N170 H177 0.984 . S
N171 C164 1.356 . S
N171 H174 0.984 . S
N171 H175 0.985 . S
H172 N167 0.984 . S
H173 N167 0.985 . S
H174 N171 0.984 . S
H175 N171 0.985 . S
H176 N170 0.984 . S
H177 N170 0.984 . S
H178 N166 0.984 . S
H179 N166 0.985 . S
C180 C181 1.363 . S
C180 C186 1.379 . S
C180 N188 1.356 1_455 S
C181 C180 1.363 . S
C181 C187 1.363 . S
C182 C183 1.363 . S
C182 C187 1.379 . S
C182 N189 1.356 . S
C183 C182 1.363 . S
C183 C186 1.363 . S
N184 C186 1.356 1_655 S
N184 H196 0.984 . S
N184 H197 0.985 1_655 S
N185 C187 1.356 . S
N185 H190 0.984 . S
N185 H191 0.985 . S
C186 C180 1.379 . S
C186 C183 1.363 . S
C186 N184 1.356 1_455 S
C187 C181 1.363 . S
C187 C182 1.379 . S
C187 N185 1.356 . S
N188 C180 1.356 1_655 S
N188 H194 0.984 . S
N188 H195 0.985 . S
N189 C182 1.356 . S
N189 H192 0.984 . S
N189 H193 0.985 . S
H190 N185 0.984 . S
H191 N185 0.985 . S
H192 N189 0.984 . S
H193 N189 0.985 . S
H194 N188 0.984 . S
H195 N188 0.985 . S
H196 N184 0.984 . S
H197 N184 0.985 1_455 S
C57 C31 1.250 . S
C55 C5 1.429 1_545 S
C75 C51 1.455 . S
C73 C23 1.485 . S
C93 C30 1.419 . S
C91 C3 1.438 1_545 S
C111 C52 1.507 . S
C109 C14 1.502 . S
C129 C44 1.472 . S
C127 C1 1.500 1_545 S
C147 C37 1.395 . S
C145 C16 1.422 . S
C165 C45 1.284 . S
C163 C10 1.485 1_545 S
C181 C18 1.441 . S
C183 C38 1.448 . S
