# Generated by pormake.
# Topology nia, (6,6)-cn, num edge types: 1
# Building blocks:
#     Node 0, Type 0, BuildingBlock: INOVEN_clean_sbu_0, # of connection points: 6
#     Node 1, Type 0, BuildingBlock: INOVEN_clean_sbu_0, # of connection points: 6
#     Node 2, Type 1, BuildingBlock: MIDCAF_clean_sbu_0, # of connection points: 6
#     Node 3, Type 1, BuildingBlock: MIDCAF_clean_sbu_0, # of connection points: 6
#     Edge 4, Type (0, 1), BuildingBlock: EYOCIG_clean_linker_4, # of connection points: 2
#     Edge 5, Type (0, 1), BuildingBlock: EYOCIG_clean_linker_4, # of connection points: 2
#     Edge 6, Type (0, 1), BuildingBlock: EYOCIG_clean_linker_4, # of connection points: 2
#     Edge 7, Type (0, 1), BuildingBlock: EYOCIG_clean_linker_4, # of connection points: 2
#     Edge 8, Type (0, 1), BuildingBlock: EYOCIG_clean_linker_4, # of connection points: 2
#     Edge 9, Type (0, 1), BuildingBlock: EYOCIG_clean_linker_4, # of connection points: 2
#     Edge 10, Type (0, 1), BuildingBlock: EYOCIG_clean_linker_4, # of connection points: 2
#     Edge 11, Type (0, 1), BuildingBlock: EYOCIG_clean_linker_4, # of connection points: 2
#     Edge 12, Type (0, 1), BuildingBlock: EYOCIG_clean_linker_4, # of connection points: 2
#     Edge 13, Type (0, 1), BuildingBlock: EYOCIG_clean_linker_4, # of connection points: 2
#     Edge 14, Type (0, 1), BuildingBlock: EYOCIG_clean_linker_4, # of connection points: 2
#     Edge 15, Type (0, 1), BuildingBlock: EYOCIG_clean_linker_4, # of connection points: 2
# Relax obj value: 0.365
# Max RMSD: 0.280
# Mean RMSD: 0.264
data_MOF--net-nia--node1-INOVEN_clean_sbu_0--node2-MIDCAF_clean_sbu_0--edge1-EYOCIG_clean_linker_4
_symmetry_space_group_name_H-M    P1
_symmetry_Int_Tables_number       1
_symmetry_cell_setting            triclinic
loop_
_symmetry_equiv_pos_as_xyz
'x, y, z'
_cell_length_a     20.643932
_cell_length_b     23.482242
_cell_length_c     27.968277
_cell_angle_alpha  66.684543
_cell_angle_beta   103.25852
_cell_angle_gamma 127.55823
loop_
_atom_site_label
_atom_site_type_symbol
_atom_site_fract_x
_atom_site_fract_y
_atom_site_fract_z
_atom_type_partial_charge
Gd0 Gd 0.08125 0.05813 0.0554 0.0
Gd1 Gd 0.97892 0.9287 1.00146 0.0
C2 C 0.94857 0.06035 0.96615 0.0
C3 C 0.188 0.18442 0.07126 0.0
C4 C 0.18578 0.24257 0.07669 0.0
C5 C 0.14571 0.22681 0.11934 0.0
C6 C 0.22982 0.31668 0.04074 0.0
C7 C 0.21089 0.36086 0.09692 0.0
C8 C 0.24249 0.37623 0.05085 0.0
C9 C 0.15835 0.28618 0.12928 0.0
C10 C 0.92884 0.94993 0.09912 0.0
C11 C 0.10737 0.92344 0.09325 0.0
C12 C 0.87642 0.80328 0.98296 0.0
C13 C 0.8837 0.74819 0.97654 0.0
C14 C 0.92436 0.767 0.93297 0.0
C15 C 0.84849 0.67522 1.01419 0.0
C16 C 0.8864 0.63879 0.96183 0.0
C17 C 0.84993 0.6205 1.00693 0.0
C18 C 0.92526 0.71231 0.92568 0.0
C19 C 0.13173 0.04078 0.95718 0.0
O20 O 0.01176 0.09833 0.99385 0.0
O21 O 0.92185 -0.00704 0.96573 0.0
O22 O 0.15497 0.11874 0.10938 0.0
O23 O 0.1727 0.17875 0.02456 0.0
O24 O 0.98425 0.00861 0.1135 0.0
O25 O 0.95897 0.95169 0.06352 0.0
O26 O 0.0457 0.8869 0.06432 0.0
O27 O 0.13477 -0.00903 0.0937 0.0
O28 O 0.90849 0.86993 0.94589 0.0
O29 O 0.8893 0.8072 0.0301 0.0
O30 O 0.07768 0.98235 0.94233 0.0
O31 O 0.09995 0.03543 0.99352 0.0
H32 H 0.1094 0.16982 0.14692 0.0
H33 H 0.25927 0.32929 1.00694 0.0
H34 H 0.28294 0.43425 0.02556 0.0
H35 H 0.13339 0.27445 0.16488 0.0
H36 H 0.95313 0.82297 0.90359 0.0
H37 H 0.81755 0.65984 0.04829 0.0
H38 H 0.81869 0.56325 0.03479 0.0
H39 H 0.95291 0.7264 0.89044 0.0
Gd40 Gd 0.9857 0.00731 0.5607 0.0
Gd41 Gd 0.08344 -0.01112 0.49928 0.0
C42 C 0.90221 0.94638 0.46325 0.0
C43 C 0.93433 0.06673 0.58593 0.0
C44 C 0.85764 0.05573 0.58971 0.0
C45 C 0.80877 0.00515 0.6351 0.0
C46 C 0.84185 0.10696 0.5523 0.0
C47 C 0.75086 0.07521 0.61353 0.0
C48 C 0.78787 0.11649 0.56416 0.0
C49 C 0.75472 0.01468 0.64675 0.0
C50 C 0.93648 0.86 0.59549 0.0
C51 C 0.16358 0.04166 0.60019 0.0
C52 C 0.13852 0.93337 0.47253 0.0
C53 C 0.21682 0.94781 0.46727 0.0
C54 C 0.26558 0.00144 0.42211 0.0
C55 C 0.23604 0.89851 0.50365 0.0
C56 C 0.33401 0.9406 0.44249 0.0
C57 C 0.29505 0.89512 0.49134 0.0
C58 C 0.32455 -0.002 0.40997 0.0
C59 C 0.12859 0.13583 0.46382 0.0
O60 O 0.90028 0.97469 0.49508 0.0
O61 O 0.9613 0.94063 0.46143 0.0
O62 O 0.94671 0.01689 0.62052 0.0
O63 O 0.96071 0.09062 0.5388 0.0
O64 O 0.9067 0.88337 0.61308 0.0
O65 O 0.98923 0.91648 0.56055 0.0
O66 O 0.16673 0.01714 0.56621 0.0
O67 O 0.10525 0.04834 0.60228 0.0
O68 O 0.12247 0.98087 0.43844 0.0
O69 O 0.11377 0.9094 0.52015 0.0
O70 O 0.15901 0.11365 0.44556 0.0
O71 O 0.07827 0.0786 0.49941 0.0
H72 H 0.81846 0.96403 0.66418 0.0
H73 H 0.87786 0.14566 0.51659 0.0
H74 H 0.78473 0.16331 0.53808 0.0
H75 H 0.72543 0.98215 0.68492 0.0
H76 H 0.25315 0.04104 0.39376 0.0
H77 H 0.19998 0.85734 0.5391 0.0
H78 H 0.30201 0.85042 0.51684 0.0
H79 H 0.35486 0.03356 0.37215 0.0
Zn80 Zn 0.4213 0.75298 0.18316 0.0
Zn81 Zn 0.40416 0.64908 0.37685 0.0
Zn82 Zn 0.41151 0.69578 0.27931 0.0
C83 C 0.56891 0.74924 0.34533 0.0
C84 C 0.30609 0.51322 0.36602 0.0
O85 O 0.34405 0.75261 0.24699 0.0
O86 O 0.34922 0.78687 0.16131 0.0
C87 C 0.57419 0.80222 0.19927 0.0
O88 O 0.53851 0.75456 0.29968 0.0
O89 O 0.5237 0.70185 0.38539 0.0
O90 O 0.32926 0.53701 0.40407 0.0
O91 O 0.3306 0.56209 0.3192 0.0
O92 O 0.53722 0.82286 0.16201 0.0
O93 O 0.53839 0.75752 0.24456 0.0
O94 O 0.34351 0.59241 0.26544 0.0
O95 O 0.37347 0.65157 0.18102 0.0
C96 C 0.34266 0.59157 0.21991 0.0
O97 O 0.37756 0.75627 0.29808 0.0
O98 O 0.37465 0.71011 0.38426 0.0
C99 C 0.32336 0.78027 0.20112 0.0
C100 C 0.37175 0.75647 0.34277 0.0
Zn101 Zn 0.64087 0.23621 0.87879 0.0
Zn102 Zn 0.66005 0.3463 0.68626 0.0
Zn103 Zn 0.65623 0.30115 0.78299 0.0
C104 C 0.74287 0.48094 0.69842 0.0
C105 C 0.49772 0.22909 0.71854 0.0
O106 O 0.71852 0.23892 0.8166 0.0
O107 O 0.67971 0.1714 0.89916 0.0
C108 C 0.75589 0.40041 0.84822 0.0
O109 O 0.73354 0.43379 0.74535 0.0
O110 O 0.70759 0.45558 0.66115 0.0
O111 O 0.54272 0.26986 0.67833 0.0
O112 O 0.52738 0.23798 0.76278 0.0
O113 O 0.72582 0.33809 0.88528 0.0
O114 O 0.73468 0.40284 0.80111 0.0
O115 O 0.52703 0.24284 0.81287 0.0
O116 O 0.5307 0.19438 0.89841 0.0
C117 C 0.49307 0.20884 0.8586 0.0
O118 O 0.69723 0.24967 0.76079 0.0
O119 O 0.72552 0.31658 0.677 0.0
C120 C 0.72088 0.19299 0.8609 0.0
C121 C 0.72202 0.26451 0.71659 0.0
C122 C 0.185 0.86084 0.14998 0.0
C123 C 0.14966 0.88942 0.12414 0.0
C124 C 0.23009 0.82966 0.17636 0.0
C125 C 0.27147 0.80533 0.19311 0.0
C126 C 0.28304 0.0893 0.66625 0.0
C127 C 0.22978 0.06688 0.63543 0.0
C128 C 0.3502 0.12743 0.6964 0.0
C129 C 0.41426 0.17001 0.71331 0.0
C130 C 0.26519 0.45263 0.14731 0.0
C131 C 0.24613 0.41891 0.11847 0.0
C132 C 0.28543 0.48428 0.18557 0.0
C133 C 0.30688 0.52352 0.21067 0.0
C134 C 0.72595 0.13661 0.66069 0.0
C135 C 0.73773 0.11112 0.63699 0.0
C136 C 0.72664 0.17379 0.68938 0.0
C137 C 0.72428 0.21038 0.70791 0.0
C138 C 0.78202 0.8682 0.14097 0.0
C139 C 0.84501 0.89914 0.11831 0.0
C140 C 0.71239 0.84134 0.16798 0.0
C141 C 0.65085 0.82044 0.18704 0.0
C142 C 0.87888 0.71318 0.63717 0.0
C143 C 0.91033 0.78117 0.61493 0.0
C144 C 0.8359 0.63275 0.66498 0.0
C145 C 0.79596 0.56359 0.68543 0.0
C146 C 0.3779 0.89308 0.39446 0.0
C147 C 0.35763 0.91221 0.41859 0.0
C148 C 0.37953 0.85732 0.36534 0.0
C149 C 0.37526 0.8163 0.34764 0.0
C150 C 0.27878 0.1337 0.91266 0.0
C151 C 0.21487 0.09679 0.93634 0.0
C152 C 0.35072 0.16633 0.88522 0.0
C153 C 0.4136 0.18864 0.86698 0.0
C154 C 0.17732 0.28073 0.42268 0.0
C155 C 0.15054 0.21348 0.44432 0.0
C156 C 0.21683 0.36132 0.39645 0.0
C157 C 0.25648 0.43076 0.37762 0.0
C158 C 0.86501 0.11786 0.91203 0.0
C159 C 0.90348 0.09211 0.93681 0.0
C160 C 0.81728 0.14652 0.88641 0.0
C161 C 0.7759 0.17092 0.86998 0.0
C162 C 0.78105 0.88703 0.40114 0.0
C163 C 0.83419 0.91525 0.43041 0.0
C164 C 0.71563 0.84627 0.3713 0.0
C165 C 0.65179 0.80629 0.35301 0.0
C166 C 0.86674 0.54536 0.92324 0.0
C167 C 0.87209 0.58097 0.94664 0.0
C168 C 0.84455 0.50784 0.888 0.0
C169 C 0.80805 0.46714 0.86207 0.0
loop_
_geom_bond_atom_site_label_1
_geom_bond_atom_site_label_2
_geom_bond_distance
_geom_bond_site_symmetry_2
_ccdc_geom_bond_type
Gd0 C3 2.818 . S
Gd0 O20 2.377 . S
Gd0 O22 2.448 . S
Gd0 O23 2.506 . S
Gd0 O24 2.435 1_445 S
Gd0 O25 2.717 1_445 S
Gd0 O27 2.395 1_545 S
Gd0 O31 2.327 1_554 S
Gd1 C12 2.818 . S
Gd1 O21 2.395 1_565 S
Gd1 O25 2.327 1_556 S
Gd1 O26 2.377 1_656 S
Gd1 O28 2.448 . S
Gd1 O29 2.506 . S
Gd1 O30 2.435 1_665 S
Gd1 O31 2.717 1_665 S
C2 O20 1.240 1_656 S
C2 O21 1.240 . S
C3 Gd0 2.818 . S
C3 C4 1.510 . S
C3 O22 1.249 . S
C3 O23 1.252 . S
C4 C3 1.510 . S
C4 C5 1.404 . S
C4 C6 1.352 . S
C5 C4 1.404 . S
C5 C9 1.389 . S
C5 H32 0.930 . S
C6 C4 1.352 . S
C6 C8 1.374 . S
C6 H33 0.931 . S
C7 C8 1.359 . S
C7 C9 1.364 . S
C8 C6 1.374 . S
C8 C7 1.359 . S
C8 H34 0.931 . S
C9 C5 1.389 . S
C9 C7 1.364 . S
C9 H35 0.931 . S
C10 O24 1.256 . S
C10 O25 1.257 . S
C11 O26 1.240 . S
C11 O27 1.240 . S
C12 Gd1 2.818 . S
C12 C13 1.510 . S
C12 O28 1.249 . S
C12 O29 1.252 . S
C13 C12 1.510 . S
C13 C14 1.404 . S
C13 C15 1.352 . S
C14 C13 1.404 . S
C14 C18 1.389 . S
C14 H36 0.930 . S
C15 C13 1.352 . S
C15 C17 1.374 . S
C15 H37 0.931 1_556 S
C16 C17 1.359 . S
C16 C18 1.364 . S
C17 C15 1.374 . S
C17 C16 1.359 . S
C17 H38 0.931 1_556 S
C18 C14 1.389 . S
C18 C16 1.364 . S
C18 H39 0.931 . S
C19 O30 1.256 . S
C19 O31 1.257 . S
O20 Gd0 2.377 . S
O20 C2 1.240 1_454 S
O21 Gd1 2.395 1_545 S
O21 C2 1.240 . S
O22 Gd0 2.448 . S
O22 C3 1.249 . S
O23 Gd0 2.506 . S
O23 C3 1.252 . S
O24 Gd0 2.435 1_665 S
O24 C10 1.256 . S
O25 Gd0 2.717 1_665 S
O25 Gd1 2.327 1_554 S
O25 C10 1.257 . S
O26 Gd1 2.377 1_454 S
O26 C11 1.240 . S
O27 Gd0 2.395 1_565 S
O27 C11 1.240 . S
O28 Gd1 2.448 . S
O28 C12 1.249 . S
O29 Gd1 2.506 . S
O29 C12 1.252 . S
O30 Gd1 2.435 1_445 S
O30 C19 1.256 . S
O31 Gd0 2.327 1_556 S
O31 Gd1 2.717 1_445 S
O31 C19 1.257 . S
H32 C5 0.930 . S
H33 C6 0.931 . S
H34 C8 0.931 . S
H35 C9 0.931 . S
H36 C14 0.930 . S
H37 C15 0.931 1_554 S
H38 C17 0.931 1_554 S
H39 C18 0.931 . S
Gd40 C43 2.818 1_455 S
Gd40 O60 2.377 1_445 S
Gd40 O62 2.448 1_455 S
Gd40 O63 2.506 1_455 S
Gd40 O64 2.435 1_445 S
Gd40 O65 2.717 1_545 S
Gd40 O67 2.395 . S
Gd40 O71 2.327 . S
Gd41 C52 2.818 . S
Gd41 O61 2.395 1_455 S
Gd41 O65 2.327 . S
Gd41 O66 2.377 1_565 S
Gd41 O68 2.448 1_565 S
Gd41 O69 2.506 . S
Gd41 O70 2.435 1_565 S
Gd41 O71 2.717 1_565 S
C42 O60 1.240 . S
C42 O61 1.240 . S
C43 Gd40 2.818 1_655 S
C43 C44 1.510 . S
C43 O62 1.249 . S
C43 O63 1.252 . S
C44 C43 1.510 . S
C44 C45 1.404 . S
C44 C46 1.352 . S
C45 C44 1.404 . S
C45 C49 1.389 . S
C45 H72 0.930 1_545 S
C46 C44 1.352 . S
C46 C48 1.374 . S
C46 H73 0.931 . S
C47 C48 1.359 . S
C47 C49 1.364 . S
C48 C46 1.374 . S
C48 C47 1.359 . S
C48 H74 0.931 . S
C49 C45 1.389 . S
C49 C47 1.364 . S
C49 H75 0.931 . S
C50 O64 1.256 . S
C50 O65 1.257 1_655 S
C51 O66 1.240 . S
C51 O67 1.240 . S
C52 Gd41 2.818 . S
C52 C53 1.510 . S
C52 O68 1.249 1_565 S
C52 O69 1.252 . S
C53 C52 1.510 . S
C53 C54 1.404 1_565 S
C53 C55 1.352 . S
C54 C53 1.404 1_545 S
C54 C58 1.389 1_545 S
C54 H76 0.930 . S
C55 C53 1.352 . S
C55 C57 1.374 . S
C55 H77 0.931 . S
C56 C57 1.359 . S
C56 C58 1.364 . S
C57 C55 1.374 . S
C57 C56 1.359 . S
C57 H78 0.931 . S
C58 C54 1.389 1_565 S
C58 C56 1.364 . S
C58 H79 0.931 1_565 S
C59 O70 1.256 . S
C59 O71 1.257 . S
O60 Gd40 2.377 1_665 S
O60 C42 1.240 . S
O61 Gd41 2.395 1_655 S
O61 C42 1.240 . S
O62 Gd40 2.448 1_655 S
O62 C43 1.249 . S
O63 Gd40 2.506 1_655 S
O63 C43 1.252 . S
O64 Gd40 2.435 1_665 S
O64 C50 1.256 . S
O65 Gd40 2.717 1_565 S
O65 Gd41 2.327 . S
O65 C50 1.257 1_455 S
O66 Gd41 2.377 1_545 S
O66 C51 1.240 . S
O67 Gd40 2.395 . S
O67 C51 1.240 . S
O68 Gd41 2.448 1_545 S
O68 C52 1.249 1_545 S
O69 Gd41 2.506 . S
O69 C52 1.252 . S
O70 Gd41 2.435 1_545 S
O70 C59 1.256 . S
O71 Gd40 2.327 . S
O71 Gd41 2.717 1_545 S
O71 C59 1.257 . S
H72 C45 0.930 1_565 S
H73 C46 0.931 . S
H74 C48 0.931 . S
H75 C49 0.931 . S
H76 C54 0.930 . S
H77 C55 0.931 . S
H78 C57 0.931 . S
H79 C58 0.931 1_545 S
Zn80 O86 1.920 . S
Zn80 O92 1.898 . S
Zn80 O95 1.905 . S
Zn81 O89 1.905 . S
Zn81 O90 1.898 . S
Zn81 O98 1.920 . S
Zn82 O85 2.080 . S
Zn82 O88 2.114 . S
Zn82 O91 2.120 . S
Zn82 O93 2.120 . S
Zn82 O94 2.114 . S
Zn82 O97 2.080 . S
C83 O88 1.166 . S
C83 O89 1.182 . S
C84 O90 1.167 . S
C84 O91 1.299 . S
O85 Zn82 2.080 . S
O85 C99 1.305 . S
O86 Zn80 1.920 . S
O86 C99 1.234 . S
C87 O92 1.167 . S
C87 O93 1.299 . S
O88 Zn82 2.114 . S
O88 C83 1.166 . S
O89 Zn81 1.905 . S
O89 C83 1.182 . S
O90 Zn81 1.898 . S
O90 C84 1.167 . S
O91 Zn82 2.120 . S
O91 C84 1.299 . S
O92 Zn80 1.898 . S
O92 C87 1.167 . S
O93 Zn82 2.120 . S
O93 C87 1.299 . S
O94 Zn82 2.114 . S
O94 C96 1.166 . S
O95 Zn80 1.905 . S
O95 C96 1.182 . S
C96 O94 1.166 . S
C96 O95 1.182 . S
O97 Zn82 2.080 . S
O97 C100 1.305 . S
O98 Zn81 1.920 . S
O98 C100 1.234 . S
C99 O85 1.305 . S
C99 O86 1.234 . S
C100 O97 1.305 . S
C100 O98 1.234 . S
Zn101 O107 1.920 . S
Zn101 O113 1.898 . S
Zn101 O116 1.905 . S
Zn102 O110 1.905 . S
Zn102 O111 1.898 . S
Zn102 O119 1.920 . S
Zn103 O106 2.080 . S
Zn103 O109 2.114 . S
Zn103 O112 2.120 . S
Zn103 O114 2.120 . S
Zn103 O115 2.114 . S
Zn103 O118 2.080 . S
C104 O109 1.166 . S
C104 O110 1.182 . S
C105 O111 1.167 . S
C105 O112 1.299 . S
O106 Zn103 2.080 . S
O106 C120 1.305 . S
O107 Zn101 1.920 . S
O107 C120 1.234 . S
C108 O113 1.167 . S
C108 O114 1.299 . S
O109 Zn103 2.114 . S
O109 C104 1.166 . S
O110 Zn102 1.905 . S
O110 C104 1.182 . S
O111 Zn102 1.898 . S
O111 C105 1.167 . S
O112 Zn103 2.120 . S
O112 C105 1.299 . S
O113 Zn101 1.898 . S
O113 C108 1.167 . S
O114 Zn103 2.120 . S
O114 C108 1.299 . S
O115 Zn103 2.114 . S
O115 C117 1.166 . S
O116 Zn101 1.905 . S
O116 C117 1.182 . S
C117 O115 1.166 . S
C117 O116 1.182 . S
O118 Zn103 2.080 . S
O118 C121 1.305 . S
O119 Zn102 1.920 . S
O119 C121 1.234 . S
C120 O106 1.305 . S
C120 O107 1.234 . S
C121 O118 1.305 . S
C121 O119 1.234 . S
C122 C123 1.170 . S
C122 C124 1.380 . S
C123 C122 1.170 . S
C124 C122 1.380 . S
C124 C125 1.170 . S
C125 C124 1.170 . S
C126 C127 1.170 . S
C126 C128 1.380 . S
C127 C126 1.170 . S
C128 C126 1.380 . S
C128 C129 1.170 . S
C129 C128 1.170 . S
C130 C131 1.170 . S
C130 C132 1.380 . S
C131 C130 1.170 . S
C132 C130 1.380 . S
C132 C133 1.170 . S
C133 C132 1.170 . S
C134 C135 1.170 . S
C134 C136 1.380 . S
C135 C134 1.170 . S
C136 C134 1.380 . S
C136 C137 1.170 . S
C137 C136 1.170 . S
C138 C139 1.170 . S
C138 C140 1.380 . S
C139 C138 1.170 . S
C140 C138 1.380 . S
C140 C141 1.170 . S
C141 C140 1.170 . S
C142 C143 1.170 . S
C142 C144 1.380 . S
C143 C142 1.170 . S
C144 C142 1.380 . S
C144 C145 1.170 . S
C145 C144 1.170 . S
C146 C147 1.170 . S
C146 C148 1.380 . S
C147 C146 1.170 . S
C148 C146 1.380 . S
C148 C149 1.170 . S
C149 C148 1.170 . S
C150 C151 1.170 . S
C150 C152 1.380 . S
C151 C150 1.170 . S
C152 C150 1.380 . S
C152 C153 1.170 . S
C153 C152 1.170 . S
C154 C155 1.170 . S
C154 C156 1.380 . S
C155 C154 1.170 . S
C156 C154 1.380 . S
C156 C157 1.170 . S
C157 C156 1.170 . S
C158 C159 1.170 . S
C158 C160 1.380 . S
C159 C158 1.170 . S
C160 C158 1.380 . S
C160 C161 1.170 . S
C161 C160 1.170 . S
C162 C163 1.170 . S
C162 C164 1.380 . S
C163 C162 1.170 . S
C164 C162 1.380 . S
C164 C165 1.170 . S
C165 C164 1.170 . S
C166 C167 1.170 . S
C166 C168 1.380 . S
C167 C166 1.170 . S
C168 C166 1.380 . S
C168 C169 1.170 . S
C169 C168 1.170 . S
C123 C11 1.946 . S
C125 C99 1.920 . S
C127 C51 1.302 . S
C129 C105 1.181 . S
C131 C7 1.013 . S
C133 C96 0.985 . S
C135 C47 1.568 . S
C137 C121 1.363 . S
C139 C10 2.098 . S
C141 C87 2.046 . S
C145 C104 2.303 . S
C143 C50 2.351 . S
C147 C56 1.364 . S
C149 C100 1.225 . S
C153 C117 1.748 . S
C151 C19 1.789 . S
C157 C84 2.108 . S
C155 C59 2.188 . S
C161 C120 2.166 . S
C159 C2 2.187 . S
C165 C83 1.513 . S
C163 C42 1.648 . S
C169 C108 0.898 . S
C167 C16 1.062 . S
