# Generated by pormake.
# Topology pth, (4,4)-cn, num edge types: 1
# Building blocks:
#     Node 0, Type 0, BuildingBlock: AZAVOO_clean_sbu_0, # of connection points: 4
#     Node 1, Type 0, BuildingBlock: AZAVOO_clean_sbu_0, # of connection points: 4
#     Node 2, Type 0, BuildingBlock: AZAVOO_clean_sbu_0, # of connection points: 4
#     Node 3, Type 1, BuildingBlock: NAWXER_clean_sbu_0, # of connection points: 4
#     Node 4, Type 1, BuildingBlock: NAWXER_clean_sbu_0, # of connection points: 4
#     Node 5, Type 1, BuildingBlock: NAWXER_clean_sbu_0, # of connection points: 4
#     Edge 6, Type (0, 1), BuildingBlock: OJICUG_clean_linker_0, # of connection points: 2
#     Edge 7, Type (0, 1), BuildingBlock: OJICUG_clean_linker_0, # of connection points: 2
#     Edge 8, Type (0, 1), BuildingBlock: OJICUG_clean_linker_0, # of connection points: 2
#     Edge 9, Type (0, 1), BuildingBlock: OJICUG_clean_linker_0, # of connection points: 2
#     Edge 10, Type (0, 1), BuildingBlock: OJICUG_clean_linker_0, # of connection points: 2
#     Edge 11, Type (0, 1), BuildingBlock: OJICUG_clean_linker_0, # of connection points: 2
#     Edge 12, Type (0, 1), BuildingBlock: OJICUG_clean_linker_0, # of connection points: 2
#     Edge 13, Type (0, 1), BuildingBlock: OJICUG_clean_linker_0, # of connection points: 2
#     Edge 14, Type (0, 1), BuildingBlock: OJICUG_clean_linker_0, # of connection points: 2
#     Edge 15, Type (0, 1), BuildingBlock: OJICUG_clean_linker_0, # of connection points: 2
#     Edge 16, Type (0, 1), BuildingBlock: OJICUG_clean_linker_0, # of connection points: 2
#     Edge 17, Type (0, 1), BuildingBlock: OJICUG_clean_linker_0, # of connection points: 2
# Relax obj value: 0.080
# Max RMSD: 0.222
# Mean RMSD: 0.117
data_MOF--net-pth--node1-AZAVOO_clean_sbu_0--node2-NAWXER_clean_sbu_0--edge1-OJICUG_clean_linker_0
_symmetry_space_group_name_H-M    P1
_symmetry_Int_Tables_number       1
_symmetry_cell_setting            triclinic
loop_
_symmetry_equiv_pos_as_xyz
'x, y, z'
_cell_length_a     15.432409
_cell_length_b     15.908214
_cell_length_c     45.389241
_cell_angle_alpha  92.155289
_cell_angle_beta   94.13636
_cell_angle_gamma 123.14822
loop_
_atom_site_label
_atom_site_type_symbol
_atom_site_fract_x
_atom_site_fract_y
_atom_site_fract_z
_atom_type_partial_charge
Mg0 Mg 0.21814 0.1261 0.03665 0.0
O1 O 0.07601 0.04139 0.00218 0.0
O2 O 0.06978 0.14705 -0.02739 0.0
Mg3 Mg 0.22255 0.30356 -0.01419 0.0
C4 C 1.03201 0.05825 -0.01949 0.0
C5 C 0.07181 0.90124 0.05833 0.0
O6 O 1.04592 0.86976 0.03001 0.0
O7 O 0.16049 0.21087 0.06219 0.0
O8 O 0.18783 0.32952 0.03204 0.0
O9 O 0.31797 0.1087 0.0043 0.0
O10 O 0.29633 0.23353 0.00779 0.0
C11 C 0.16722 0.29277 0.05704 0.0
C12 C 0.33898 0.19384 -0.00442 0.0
O13 O 0.13929 0.99435 0.06625 0.0
Mg14 Mg 0.97192 0.05806 0.35651 0.0
O15 O 0.11903 0.09722 0.38497 0.0
O16 O 0.19612 0.25156 0.4077 0.0
Mg17 Mg 0.09276 0.31081 0.39531 0.0
C18 C 0.1915 0.16962 0.40268 0.0
C19 C 0.07344 0.9729 0.31983 0.0
O20 O 0.15059 0.06675 0.3275 0.0
O21 O 1.04638 0.16525 0.32122 0.0
O22 O 0.10721 0.31532 0.34547 0.0
O23 O 0.88685 0.99999 0.39737 0.0
O24 O 0.95616 0.15457 0.38508 0.0
C25 C 0.08714 0.25984 0.3216 0.0
C26 C 0.90832 0.09007 0.40355 0.0
O27 O 0.98524 0.94079 0.32923 0.0
Mg28 Mg 0.05304 0.96885 0.68719 0.0
O29 O 0.13442 0.10706 0.72072 0.0
O30 O 1.0197 0.10802 0.74755 0.0
Mg31 Mg 0.86094 0.95919 0.73303 0.0
C32 C 0.1128 0.14775 0.7411 0.0
C33 C 0.23994 0.13265 0.65242 0.0
O34 O 0.1961 0.18323 0.65552 0.0
O35 O 0.9682 1.02351 0.65788 0.0
O36 O 0.84204 0.99458 0.68577 0.0
O37 O 0.07206 0.87683 0.72178 0.0
O38 O 0.93793 0.88996 0.71451 0.0
C39 C 0.88252 1.01586 0.66136 0.0
C40 C 0.98208 0.85322 0.72887 0.0
O41 O 0.1991 0.04626 0.66233 0.0
C42 C 0.1239 0.73674 0.23062 0.0
C43 C 0.16662 0.5414 0.15237 0.0
O44 O 0.21092 0.76485 0.2211 0.0
Zn45 Zn 0.15925 0.65094 0.19101 0.0
O46 O 1.04098 0.6549 0.21905 0.0
Zn47 Zn 0.98925 0.53406 0.18629 0.0
O48 O 0.94232 0.42059 0.21105 0.0
O49 O 0.11225 0.53336 0.21815 0.0
O50 O 0.07453 0.50405 0.15922 0.0
O51 O 0.24128 0.62748 0.16444 0.0
O52 O 0.07065 0.67663 0.16071 0.0
O53 O 0.90373 0.55381 0.15604 0.0
C54 C 1.03196 0.45117 0.22429 0.0
C55 C 0.97787 0.63818 0.14877 0.0
C56 C 0.63411 0.03516 0.56467 0.0
C57 C 0.43804 0.09863 0.48767 0.0
O58 O 0.54582 0.96537 0.55128 0.0
Zn59 Zn 0.52431 0.05291 0.52667 0.0
O60 O 0.67344 0.12695 0.5596 0.0
Zn61 Zn 0.6444 0.21768 0.53354 0.0
O62 O 0.62253 0.29392 0.56458 0.0
O63 O 0.50133 0.1305 0.55984 0.0
O64 O 0.52202 0.17603 0.50062 0.0
O65 O 0.40854 1.01145 0.49553 0.0
O66 O 0.65017 0.10389 0.50205 0.0
O67 O 0.76293 0.26896 0.50963 0.0
C68 C 0.54028 0.21828 0.57277 0.0
C69 C 0.73557 0.18331 0.49714 0.0
C70 C 0.56981 0.41695 0.90158 0.0
C71 C 0.76178 0.61885 0.82319 0.0
O72 O 0.54606 0.47937 0.89401 0.0
Zn73 Zn 0.58238 0.58713 0.86252 0.0
O74 O 0.6359 0.41047 0.88829 0.0
Zn75 Zn 0.66683 0.51627 0.86218 0.0
O76 O 0.73482 0.65104 0.89252 0.0
O77 O 0.63592 0.71138 0.88722 0.0
O78 O 0.77539 0.55656 0.83598 0.0
O79 O 0.69323 0.63441 0.83111 0.0
O80 O 0.45132 0.52853 0.83773 0.0
O81 O 0.52639 0.44528 0.83148 0.0
C82 C 0.71632 0.7183 0.89965 0.0
C83 C 0.45149 0.45674 0.82455 0.0
C84 C 0.22451 0.46209 0.08117 0.0
C85 C 0.16834 0.35639 0.08193 0.0
H86 H 0.2719 0.60471 0.1036 0.0
C87 C 0.12085 0.31437 0.10738 0.0
H88 H 0.26394 0.49717 0.06208 0.0
C89 C 0.12556 0.37623 0.13099 0.0
C90 C 0.18022 0.48145 0.12998 0.0
H91 H 0.07834 0.23369 0.1088 0.0
H92 H 0.08453 0.34155 0.14991 0.0
C93 C 0.23119 0.52417 0.10511 0.0
C94 C 0.89519 0.21644 0.43416 0.0
C95 C 0.87873 0.11996 0.43034 0.0
H96 H 0.86424 0.31365 0.45878 0.0
C97 C 0.82736 0.05109 0.45113 0.0
H98 H 0.93423 0.27143 0.41844 0.0
C99 C 0.78748 0.07566 0.47411 0.0
C100 C 0.79804 0.16956 0.4768 0.0
H101 H 0.81427 0.97682 0.449 0.0
H102 H 0.74428 1.01915 0.48915 0.0
C103 C 0.85558 0.24125 0.45731 0.0
C104 C 0.97708 0.75817 0.77315 0.0
C105 C 0.92871 0.78828 0.75262 0.0
H106 H 0.96136 0.67893 0.81202 0.0
C107 C 0.82449 0.75565 0.75457 0.0
H108 H 0.05696 0.78128 0.77196 0.0
C109 C 0.77127 0.69903 0.77714 0.0
C110 C 0.8197 0.6716 0.79832 0.0
H111 H 0.78312 0.77425 0.73868 0.0
H112 H 0.69153 0.67702 0.77803 0.0
C113 C 0.92248 0.69952 0.7959 0.0
C114 C 1.04029 0.86444 0.11099 0.0
C115 C 1.02554 0.82869 0.0811 0.0
H116 H 1.03074 0.82904 0.15611 0.0
C117 C 0.97117 0.72381 0.07364 0.0
H118 H 0.08004 0.94438 0.11751 0.0
C119 C 0.94144 0.65723 0.09594 0.0
C120 C 0.96482 0.69469 0.12591 0.0
H121 H 0.95766 0.69376 0.05076 0.0
H122 H 0.90916 0.5782 0.08989 0.0
C123 C 1.01023 0.79816 0.1331 0.0
C124 C 0.34921 0.23196 0.4389 0.0
C125 C 0.26172 0.15164 0.42147 0.0
H126 H 0.4726 0.27811 0.47315 0.0
C127 C 0.23501 0.05261 0.42489 0.0
H128 H 0.37201 0.30896 0.43693 0.0
C129 C 0.29203 0.03432 0.44617 0.0
C130 C 0.37768 0.11479 0.46419 0.0
H131 H 0.16746 0.98866 0.41196 0.0
H132 H 0.26823 0.95737 0.44876 0.0
C133 C 0.40663 0.21386 0.45983 0.0
C134 C 0.18316 0.29111 0.7812 0.0
C135 C 0.20049 0.23587 0.76021 0.0
H136 H 0.24946 0.40572 0.81781 0.0
C137 C 0.30246 0.25945 0.75943 0.0
H138 H 0.10571 0.275 0.78241 0.0
C139 C 0.38377 0.3324 0.77999 0.0
C140 C 0.36597 0.38535 0.80153 0.0
H141 H 0.31913 0.21865 0.74366 0.0
H142 H 0.4606 0.34641 0.77925 0.0
C143 C 0.26542 0.36593 0.80147 0.0
C144 C 0.70961 0.96131 0.63482 0.0
C145 C 0.8191 1.0169 0.6355 0.0
H146 H 0.56413 0.92006 0.61111 0.0
C147 C 0.86499 0.06856 0.61097 0.0
H148 H 0.67156 0.91885 0.65317 0.0
C149 C 0.80306 0.06918 0.58703 0.0
C150 C 0.6941 1.01586 0.58681 0.0
H151 H 0.94867 0.11086 0.61069 0.0
H152 H 0.84061 0.11368 0.56893 0.0
C153 C 0.64758 0.96006 0.61056 0.0
C154 C 0.93401 0.87679 -0.03884 0.0
C155 C 0.94357 0.97001 -0.03834 0.0
H156 H 0.85582 0.72546 0.94134 0.0
C157 C 0.87375 0.97861 0.94238 0.0
H158 H 0.98768 0.86772 -0.02491 0.0
C159 C 0.79697 0.89585 0.92286 0.0
C160 C 0.79025 0.80384 0.92185 0.0
H161 H 0.8794 0.04948 0.9421 0.0
H162 H 0.74528 0.90493 0.90791 0.0
C163 C 0.85892 0.79518 0.94147 0.0
C164 C 1.00489 0.81283 0.28758 0.0
C165 C 0.0884 0.90974 0.2986 0.0
H166 H 0.95084 0.68281 0.25772 0.0
C167 C 0.18594 0.94823 0.288 0.0
H168 H 0.92895 0.7808 0.29523 0.0
C169 C 0.19889 0.892 0.26632 0.0
C170 C 0.11446 0.79613 0.25473 0.0
H171 H 0.25225 1.02275 0.29607 0.0
H172 H 0.27431 0.92434 0.2583 0.0
C173 C 1.01773 0.75685 0.26594 0.0
C174 C 0.39182 0.13 0.63825 0.0
C175 C 0.33259 0.17243 0.63595 0.0
H176 H 0.50837 0.11598 0.62052 0.0
C177 C 0.35866 0.24752 0.6163 0.0
H178 H 0.37505 0.07327 0.65344 0.0
C179 C 0.43624 0.27262 0.59742 0.0
C180 C 0.48932 0.22383 0.5983 0.0
H181 H 0.31467 0.28198 0.61413 0.0
H182 H 0.44858 0.32364 0.58064 0.0
C183 C 0.46926 0.15555 0.61969 0.0
C184 C 0.43255 0.2017 0.95076 0.0
C185 C 0.40851 0.24823 -0.02726 0.0
H186 H 0.50456 0.21969 0.91036 0.0
C187 C 0.44808 0.35147 -0.02754 0.0
H188 H 0.4037 0.12246 0.9506 0.0
C189 C 0.50379 0.4056 0.94987 0.0
C190 C 0.52314 0.35885 0.92695 0.0
H191 H 0.43385 0.39083 -0.01053 0.0
H192 H 0.52998 0.48428 0.95004 0.0
C193 C 0.49017 0.25716 0.9279 0.0
C194 C 0.1554 0.4048 0.29102 0.0
C195 C 0.08448 0.30211 0.2935 0.0
H196 H 0.19354 0.53169 0.26737 0.0
C197 C 0.99752 0.246 0.27195 0.0
H198 H 0.22198 0.44994 0.30753 0.0
C199 C 0.97891 0.29347 0.24928 0.0
C200 C 0.04825 0.39716 0.24753 0.0
H201 H 0.94028 0.16686 0.27374 0.0
H202 H 0.91005 0.24963 0.23345 0.0
C203 C 0.13806 0.45154 0.26816 0.0
loop_
_geom_bond_atom_site_label_1
_geom_bond_atom_site_label_2
_geom_bond_distance
_geom_bond_site_symmetry_2
_ccdc_geom_bond_type
Mg0 O1 2.028 1_545 S
Mg0 O7 1.986 . S
Mg0 O9 2.114 . S
Mg0 O10 2.251 . S
Mg0 O13 2.010 . S
O1 Mg0 2.028 1_565 S
O1 C4 1.250 1_455 S
O2 Mg3 2.028 1_655 S
O2 C4 1.248 1_545 S
Mg3 O2 2.028 1_455 S
Mg3 O8 2.032 . S
Mg3 O10 2.079 . S
C4 O1 1.250 1_655 S
C4 O2 1.248 1_565 S
C5 O6 1.264 . S
C5 O13 1.249 1_565 S
O6 C5 1.264 . S
O7 Mg0 1.986 . S
O7 C11 1.246 . S
O8 Mg3 2.032 . S
O8 C11 1.259 . S
O9 Mg0 2.114 . S
O9 C12 1.252 . S
O10 Mg0 2.251 . S
O10 Mg3 2.079 . S
O10 C12 1.273 . S
C11 O7 1.246 . S
C11 O8 1.259 . S
C12 O9 1.252 . S
C12 O10 1.273 . S
O13 Mg0 2.010 . S
O13 C5 1.249 1_545 S
Mg14 O15 2.028 1_655 S
Mg14 O21 1.986 1_655 S
Mg14 O23 2.114 1_545 S
Mg14 O24 2.251 . S
Mg14 O27 2.010 1_545 S
O15 Mg14 2.028 1_455 S
O15 C18 1.250 . S
O16 Mg17 2.028 . S
O16 C18 1.248 . S
Mg17 O16 2.028 . S
Mg17 O22 2.032 . S
Mg17 O24 2.079 1_455 S
C18 O15 1.250 . S
C18 O16 1.248 . S
C19 O20 1.264 . S
C19 O27 1.249 . S
O20 C19 1.264 . S
O21 Mg14 1.986 1_455 S
O21 C25 1.246 . S
O22 Mg17 2.032 . S
O22 C25 1.259 . S
O23 Mg14 2.114 1_565 S
O23 C26 1.252 1_565 S
O24 Mg14 2.251 . S
O24 Mg17 2.079 1_655 S
O24 C26 1.273 . S
C25 O21 1.246 . S
C25 O22 1.259 . S
C26 O23 1.252 1_545 S
C26 O24 1.273 . S
O27 Mg14 2.010 1_565 S
O27 C19 1.249 . S
Mg28 O29 2.028 . S
Mg28 O35 1.986 1_455 S
Mg28 O37 2.114 1_545 S
Mg28 O38 2.251 1_445 S
Mg28 O41 2.010 1_545 S
O29 Mg28 2.028 . S
O29 C32 1.250 . S
O30 Mg31 2.028 1_455 S
O30 C32 1.248 . S
Mg31 O30 2.028 1_655 S
Mg31 O36 2.032 . S
Mg31 O38 2.079 1_545 S
C32 O29 1.250 . S
C32 O30 1.248 . S
C33 O34 1.264 . S
C33 O41 1.249 . S
O34 C33 1.264 . S
O35 Mg28 1.986 1_655 S
O35 C39 1.246 . S
O36 Mg31 2.032 . S
O36 C39 1.259 . S
O37 Mg28 2.114 1_565 S
O37 C40 1.252 1_455 S
O38 Mg28 2.251 1_665 S
O38 Mg31 2.079 1_565 S
O38 C40 1.273 . S
C39 O35 1.246 . S
C39 O36 1.259 . S
C40 O37 1.252 1_655 S
C40 O38 1.273 . S
O41 Mg28 2.010 1_565 S
O41 C33 1.249 . S
C42 O44 1.247 . S
C42 O46 1.258 1_455 S
C43 O50 1.247 1_455 S
C43 O51 1.258 . S
O44 C42 1.247 . S
O44 Zn45 2.028 . S
Zn45 O44 2.028 . S
Zn45 O49 2.035 . S
Zn45 O51 2.035 . S
Zn45 O52 2.028 . S
O46 C42 1.258 1_655 S
O46 Zn47 2.035 . S
Zn47 O46 2.035 . S
Zn47 O48 2.028 . S
Zn47 O50 2.028 . S
Zn47 O53 2.035 . S
O48 Zn47 2.028 . S
O48 C54 1.247 1_655 S
O49 Zn45 2.035 . S
O49 C54 1.258 . S
O50 C43 1.247 1_655 S
O50 Zn47 2.028 . S
O51 C43 1.258 . S
O51 Zn45 2.035 . S
O52 Zn45 2.028 . S
O52 C55 1.247 . S
O53 Zn47 2.035 . S
O53 C55 1.258 1_655 S
C54 O48 1.247 1_455 S
C54 O49 1.258 . S
C55 O52 1.247 . S
C55 O53 1.258 1_455 S
C56 O58 1.247 . S
C56 O60 1.258 . S
C57 O64 1.247 . S
C57 O65 1.258 . S
O58 C56 1.247 . S
O58 Zn59 2.028 1_545 S
Zn59 O58 2.028 1_565 S
Zn59 O63 2.035 1_565 S
Zn59 O65 2.035 1_565 S
Zn59 O66 2.028 1_565 S
O60 C56 1.258 . S
O60 Zn61 2.035 . S
Zn61 O60 2.035 . S
Zn61 O62 2.028 . S
Zn61 O64 2.028 . S
Zn61 O67 2.035 . S
O62 Zn61 2.028 . S
O62 C68 1.247 . S
O63 Zn59 2.035 1_545 S
O63 C68 1.258 . S
O64 C57 1.247 . S
O64 Zn61 2.028 . S
O65 C57 1.258 . S
O65 Zn59 2.035 1_545 S
O66 Zn59 2.028 1_545 S
O66 C69 1.247 . S
O67 Zn61 2.035 . S
O67 C69 1.258 . S
C68 O62 1.247 . S
C68 O63 1.258 . S
C69 O66 1.247 . S
C69 O67 1.258 . S
C70 O72 1.247 . S
C70 O74 1.258 . S
C71 O78 1.247 . S
C71 O79 1.258 . S
O72 C70 1.247 . S
O72 Zn73 2.028 . S
Zn73 O72 2.028 . S
Zn73 O77 2.035 . S
Zn73 O79 2.035 . S
Zn73 O80 2.028 . S
O74 C70 1.258 . S
O74 Zn75 2.035 . S
Zn75 O74 2.035 . S
Zn75 O76 2.028 . S
Zn75 O78 2.028 . S
Zn75 O81 2.035 . S
O76 Zn75 2.028 . S
O76 C82 1.247 . S
O77 Zn73 2.035 . S
O77 C82 1.258 . S
O78 C71 1.247 . S
O78 Zn75 2.028 . S
O79 C71 1.258 . S
O79 Zn73 2.035 . S
O80 Zn73 2.028 . S
O80 C83 1.247 . S
O81 Zn75 2.035 . S
O81 C83 1.258 . S
C82 O76 1.247 . S
C82 O77 1.258 . S
C83 O80 1.247 . S
C83 O81 1.258 . S
C84 C85 1.387 . S
C84 H88 0.950 . S
C84 C93 1.390 . S
C85 C84 1.387 . S
C85 C87 1.387 . S
H86 C93 0.950 . S
C87 C85 1.387 . S
C87 C89 1.390 . S
C87 H91 0.950 . S
H88 C84 0.950 . S
C89 C87 1.390 . S
C89 C90 1.387 . S
C89 H92 0.950 . S
C90 C89 1.387 . S
C90 C93 1.387 . S
H91 C87 0.950 . S
H92 C89 0.950 . S
C93 C84 1.390 . S
C93 H86 0.950 . S
C93 C90 1.387 . S
C94 C95 1.387 . S
C94 H98 0.950 . S
C94 C103 1.390 . S
C95 C94 1.387 . S
C95 C97 1.387 1_545 S
H96 C103 0.950 . S
C97 C95 1.387 1_565 S
C97 C99 1.390 . S
C97 H101 0.950 . S
H98 C94 0.950 . S
C99 C97 1.390 . S
C99 C100 1.387 1_565 S
C99 H102 0.950 . S
C100 C99 1.387 1_545 S
C100 C103 1.387 . S
H101 C97 0.950 . S
H102 C99 0.950 . S
C103 C94 1.390 . S
C103 H96 0.950 . S
C103 C100 1.387 . S
C104 C105 1.387 . S
C104 H108 0.950 . S
C104 C113 1.390 . S
C105 C104 1.387 . S
C105 C107 1.387 . S
H106 C113 0.950 . S
C107 C105 1.387 . S
C107 C109 1.390 . S
C107 H111 0.950 . S
H108 C104 0.950 . S
C109 C107 1.390 . S
C109 C110 1.387 . S
C109 H112 0.950 . S
C110 C109 1.387 . S
C110 C113 1.387 . S
H111 C107 0.950 . S
H112 C109 0.950 . S
C113 C104 1.390 . S
C113 H106 0.950 . S
C113 C110 1.387 . S
C114 C115 1.387 . S
C114 H118 0.950 . S
C114 C123 1.390 . S
C115 C114 1.387 . S
C115 C117 1.387 . S
H116 C123 0.950 . S
C117 C115 1.387 . S
C117 C119 1.390 . S
C117 H121 0.950 . S
H118 C114 0.950 . S
C119 C117 1.390 . S
C119 C120 1.387 . S
C119 H122 0.950 . S
C120 C119 1.387 . S
C120 C123 1.387 . S
H121 C117 0.950 . S
H122 C119 0.950 . S
C123 C114 1.390 . S
C123 H116 0.950 . S
C123 C120 1.387 . S
C124 C125 1.387 . S
C124 H128 0.950 . S
C124 C133 1.390 . S
C125 C124 1.387 . S
C125 C127 1.387 . S
H126 C133 0.950 . S
C127 C125 1.387 . S
C127 C129 1.390 . S
C127 H131 0.950 . S
H128 C124 0.950 . S
C129 C127 1.390 . S
C129 C130 1.387 . S
C129 H132 0.950 . S
C130 C129 1.387 . S
C130 C133 1.387 . S
H131 C127 0.950 . S
H132 C129 0.950 . S
C133 C124 1.390 . S
C133 H126 0.950 . S
C133 C130 1.387 . S
C134 C135 1.387 . S
C134 H138 0.950 . S
C134 C143 1.390 . S
C135 C134 1.387 . S
C135 C137 1.387 . S
H136 C143 0.950 . S
C137 C135 1.387 . S
C137 C139 1.390 . S
C137 H141 0.950 . S
H138 C134 0.950 . S
C139 C137 1.390 . S
C139 C140 1.387 . S
C139 H142 0.950 . S
C140 C139 1.387 . S
C140 C143 1.387 . S
H141 C137 0.950 . S
H142 C139 0.950 . S
C143 C134 1.390 . S
C143 H136 0.950 . S
C143 C140 1.387 . S
C144 C145 1.387 . S
C144 H148 0.950 . S
C144 C153 1.390 . S
C145 C144 1.387 . S
C145 C147 1.387 . S
H146 C153 0.950 . S
C147 C145 1.387 . S
C147 C149 1.390 . S
C147 H151 0.950 1_545 S
H148 C144 0.950 . S
C149 C147 1.390 . S
C149 C150 1.387 . S
C149 H152 0.950 1_545 S
C150 C149 1.387 . S
C150 C153 1.387 . S
H151 C147 0.950 1_565 S
H152 C149 0.950 1_565 S
C153 C144 1.390 . S
C153 H146 0.950 . S
C153 C150 1.387 . S
C154 C155 1.387 . S
C154 H158 0.950 . S
C154 C163 1.390 1_554 S
C155 C154 1.387 . S
C155 C157 1.387 1_554 S
H156 C163 0.950 . S
C157 C155 1.387 1_556 S
C157 C159 1.390 . S
C157 H161 0.950 . S
H158 C154 0.950 . S
C159 C157 1.390 . S
C159 C160 1.387 . S
C159 H162 0.950 . S
C160 C159 1.387 . S
C160 C163 1.387 . S
H161 C157 0.950 . S
H162 C159 0.950 . S
C163 C154 1.390 1_556 S
C163 H156 0.950 . S
C163 C160 1.387 . S
C164 C165 1.387 1_455 S
C164 H168 0.950 . S
C164 C173 1.390 . S
C165 C164 1.387 1_655 S
C165 C167 1.387 . S
H166 C173 0.950 . S
C167 C165 1.387 . S
C167 C169 1.381 1_655 S
C167 H171 0.950 . S
H168 C164 0.950 . S
C169 C167 1.381 1_455 S
C169 C170 1.390 . S
C169 H172 0.956 1_455 S
C170 C169 1.390 . S
C170 C173 1.387 . S
H171 C167 0.950 . S
H172 C169 0.956 1_655 S
C173 C164 1.390 . S
C173 H166 0.950 . S
C173 C170 1.387 . S
C174 C175 1.387 . S
C174 H178 0.950 . S
C174 C183 1.390 . S
C175 C174 1.387 . S
C175 C177 1.387 1_545 S
H176 C183 0.950 . S
C177 C175 1.387 1_565 S
C177 C179 1.390 . S
C177 H181 0.950 . S
H178 C174 0.950 . S
C179 C177 1.390 . S
C179 C180 1.387 1_565 S
C179 H182 0.950 . S
C180 C179 1.387 1_545 S
C180 C183 1.387 . S
H181 C177 0.950 . S
H182 C179 0.950 . S
C183 C174 1.390 . S
C183 H176 0.950 . S
C183 C180 1.387 . S
C184 C185 1.387 1_556 S
C184 H188 0.950 . S
C184 C193 1.390 . S
C185 C184 1.387 1_554 S
C185 C187 1.387 . S
H186 C193 0.950 . S
C187 C185 1.387 . S
C187 C189 1.390 1_554 S
C187 H191 0.950 . S
H188 C184 0.950 . S
C189 C187 1.390 1_556 S
C189 C190 1.387 . S
C189 H192 0.950 . S
C190 C189 1.387 . S
C190 C193 1.387 . S
H191 C187 0.950 . S
H192 C189 0.950 . S
C193 C184 1.390 . S
C193 H186 0.950 . S
C193 C190 1.387 . S
C194 C195 1.387 . S
C194 H198 0.950 . S
C194 C203 1.390 . S
C195 C194 1.387 . S
C195 C197 1.387 1_455 S
H196 C203 0.950 . S
C197 C195 1.387 1_655 S
C197 C199 1.390 . S
C197 H201 0.950 . S
H198 C194 0.950 . S
C199 C197 1.390 . S
C199 C200 1.387 1_655 S
C199 H202 0.950 . S
C200 C199 1.387 1_455 S
C200 C203 1.387 . S
H201 C197 0.950 . S
H202 C199 0.950 . S
C203 C194 1.390 . S
C203 H196 0.950 . S
C203 C200 1.387 . S
C90 C43 1.452 . S
C85 C11 1.437 . S
C95 C26 1.535 . S
C100 C69 1.554 . S
C105 C40 1.443 . S
C110 C71 1.454 . S
C115 C5 1.289 . S
C120 C55 1.448 . S
C130 C57 1.547 . S
C125 C18 1.533 . S
C135 C32 1.426 . S
C140 C83 1.443 . S
C150 C56 1.355 . S
C145 C39 1.345 . S
C155 C4 1.438 . S
C160 C82 1.455 . S
C170 C42 1.463 . S
C165 C19 1.310 . S
C180 C68 1.392 . S
C175 C33 1.231 1_545 S
C190 C70 1.471 . S
C185 C12 1.454 . S
C195 C25 1.449 . S
C200 C54 1.467 . S
