# Generated by pormake.
# Topology bcu-b, (8,8)-cn, num edge types: 1
# Building blocks:
#     Node 0, Type 0, BuildingBlock: VETTIZ_charged_sbu_0, # of connection points: 8
#     Node 1, Type 1, BuildingBlock: GIZVER_clean_sbu_0, # of connection points: 8
#     Edge 2, Type (0, 1), BuildingBlock: CIFDUS_clean_linker_0, # of connection points: 2
#     Edge 3, Type (0, 1), BuildingBlock: CIFDUS_clean_linker_0, # of connection points: 2
#     Edge 4, Type (0, 1), BuildingBlock: CIFDUS_clean_linker_0, # of connection points: 2
#     Edge 5, Type (0, 1), BuildingBlock: CIFDUS_clean_linker_0, # of connection points: 2
#     Edge 6, Type (0, 1), BuildingBlock: CIFDUS_clean_linker_0, # of connection points: 2
#     Edge 7, Type (0, 1), BuildingBlock: CIFDUS_clean_linker_0, # of connection points: 2
#     Edge 8, Type (0, 1), BuildingBlock: CIFDUS_clean_linker_0, # of connection points: 2
#     Edge 9, Type (0, 1), BuildingBlock: CIFDUS_clean_linker_0, # of connection points: 2
# Relax obj value: 0.084
# Max RMSD: 0.151
# Mean RMSD: 0.139
data_MOF--net-bcu-b--node1-VETTIZ_charged_sbu_0--node2-GIZVER_clean_sbu_0--edge1-CIFDUS_clean_linker_0
_symmetry_space_group_name_H-M    P1
_symmetry_Int_Tables_number       1
_symmetry_cell_setting            triclinic
loop_
_symmetry_equiv_pos_as_xyz
'x, y, z'
_cell_length_a     18.417316
_cell_length_b     20.449165
_cell_length_c     14.200711
_cell_angle_alpha  89.209292
_cell_angle_beta   88.318279
_cell_angle_gamma 101.94839
loop_
_atom_site_label
_atom_site_type_symbol
_atom_site_fract_x
_atom_site_fract_y
_atom_site_fract_z
_atom_type_partial_charge
Fe0 Fe 0.99292 0.9336 0.05145 0.0
O1 O 0.04865 1.00897 0.12658 0.0
Fe2 Fe 0.98102 0.01423 0.83498 0.0
Fe3 Fe 0.03841 0.0147 0.2649 0.0
O4 O 0.96785 1.00766 0.97301 0.0
O5 O 0.96886 0.01475 0.97311 0.0
O6 O 0.04845 0.01574 0.12736 0.0
Fe7 Fe 0.02511 0.08927 0.04781 0.0
C8 C 0.8924 0.91557 0.2222 0.0
O9 O 0.02929 0.86757 0.1454 0.0
O10 O 0.09264 0.93686 0.25693 0.0
O11 O 0.11979 0.08922 0.96986 0.0
O12 O 0.07556 0.09094 0.82695 0.0
O13 O 0.04395 0.94306 0.8265 0.0
O14 O 0.08706 0.92996 0.96853 0.0
O15 O 0.12914 0.09125 0.249 0.0
O16 O 0.09225 0.1584 0.13533 0.0
C17 C 0.08556 0.91852 0.88041 0.0
O18 O 0.98943 0.15737 0.95375 0.0
O19 O 0.92315 0.08875 0.84506 0.0
O20 O 0.89729 0.928 0.1338 0.0
O21 O 0.94393 0.94103 0.27662 0.0
C22 C 0.07511 0.88009 0.2146 0.0
C23 C 0.1367 0.14641 0.20041 0.0
C24 C 0.92995 0.10496 0.21403 0.0
O25 O 0.976 0.08867 0.27047 0.0
O26 O 0.9311 0.09123 0.12725 0.0
C27 C 0.12817 0.10685 0.88398 0.0
O28 O 0.89353 0.93382 0.847 0.0
O29 O 0.92814 0.86551 0.96148 0.0
C30 C 0.94112 0.14532 0.88703 0.0
C31 C 0.88778 0.8767 0.89121 0.0
Co32 Co 0.60724 0.39398 0.49112 0.0
Co33 Co 0.60078 0.43169 0.66365 0.0
Co34 Co 0.5096 0.51616 0.54492 0.0
O35 O 0.59985 0.47692 0.54946 0.0
H36 H 0.6449 0.51062 0.54055 0.0
O37 O 0.41782 0.55337 0.54392 0.0
Co38 Co 0.41832 0.63809 0.59835 0.0
Co39 Co 0.41052 0.59269 0.43012 0.0
H40 H 0.37296 0.52074 0.55944 0.0
O41 O 0.68872 0.42835 0.71403 0.0
O42 O 0.62029 0.3531 0.61817 0.0
O43 O 0.5116 0.40574 0.73979 0.0
O44 O 0.44718 0.44831 0.63462 0.0
O45 O 0.55014 0.57747 0.64787 0.0
O46 O 0.41403 0.71413 0.65311 0.0
O47 O 0.32045 0.62505 0.63648 0.0
O48 O 0.51998 0.66266 0.57266 0.0
O49 O 0.57031 0.58382 0.45096 0.0
O50 O 0.49455 0.60862 0.3431 0.0
O51 O 0.39469 0.67352 0.47331 0.0
O52 O 0.31968 0.59424 0.38933 0.0
C53 C 0.6907 0.35183 0.43627 0.0
C54 C 0.45836 0.39404 0.44841 0.0
C55 C 0.45018 0.41111 0.70651 0.0
C56 C 0.67666 0.3706 0.6737 0.0
C57 C 0.3457 0.68427 0.67089 0.0
C58 C 0.5607 0.64021 0.6306 0.0
C59 C 0.55937 0.61133 0.37239 0.0
C60 C 0.33439 0.65332 0.4259 0.0
O61 O 0.62163 0.32102 0.43521 0.0
O62 O 0.70789 0.41102 0.47347 0.0
O63 O 0.47012 0.45737 0.44118 0.0
O64 O 0.50074 0.3646 0.49568 0.0
H65 H 0.14592 0.26404 0.29005 0.0
H66 H 0.27666 0.13575 0.16075 0.0
H67 H 0.3891 0.19978 0.22916 0.0
H68 H 0.44848 0.28677 0.33674 0.0
H69 H 0.3194 0.41819 0.46166 0.0
H70 H 0.20795 0.35817 0.38617 0.0
C71 C 0.19956 0.25184 0.27463 0.0
C72 C 0.20381 0.19628 0.21966 0.0
C73 C 0.26373 0.28811 0.31592 0.0
C74 C 0.2729 0.17927 0.20187 0.0
C75 C 0.33688 0.21523 0.24191 0.0
C76 C 0.39572 0.30176 0.34755 0.0
C77 C 0.39133 0.35559 0.40585 0.0
C78 C 0.33261 0.2685 0.30132 0.0
C79 C 0.32344 0.3761 0.4178 0.0
C80 C 0.25993 0.34215 0.37422 0.0
H81 H 0.95049 0.19949 0.34992 0.0
H82 H 0.79197 0.10321 0.15119 0.0
H83 H 0.70563 0.1731 0.20037 0.0
H84 H 0.67457 0.26044 0.30007 0.0
H85 H 0.83368 0.36212 0.49373 0.0
H86 H 0.92109 0.29198 0.44556 0.0
C87 C 0.89671 0.19352 0.31819 0.0
C88 C 0.87708 0.14559 0.24794 0.0
C89 C 0.84804 0.23533 0.34503 0.0
C90 C 0.80807 0.13943 0.20571 0.0
C91 C 0.75881 0.17948 0.23361 0.0
C92 C 0.72867 0.26766 0.33125 0.0
C93 C 0.7478 0.31637 0.40022 0.0
C94 C 0.77826 0.22756 0.30296 0.0
C95 C 0.81815 0.32551 0.43959 0.0
C96 C 0.86773 0.28496 0.4127 0.0
H97 H 0.77494 0.83823 0.13207 0.0
H98 H 0.87513 0.86939 0.40381 0.0
H99 H 0.7884 0.77277 0.46881 0.0
H100 H 0.68336 0.67981 0.45128 0.0
H101 H 0.57277 0.65328 0.18705 0.0
H102 H 0.6653 0.74582 0.11607 0.0
C103 C 0.77711 0.8245 0.20581 0.0
C104 C 0.83185 0.86173 0.26249 0.0
C105 C 0.72586 0.76873 0.24409 0.0
C106 C 0.83377 0.84245 0.35795 0.0
C107 C 0.78428 0.78668 0.39554 0.0
C108 C 0.6797 0.69387 0.37799 0.0
C109 C 0.62134 0.65952 0.32467 0.0
C110 C 0.73037 0.74931 0.33937 0.0
C111 C 0.61739 0.67872 0.22968 0.0
C112 C 0.66988 0.73206 0.18931 0.0
H113 H 0.16768 0.88673 0.36041 0.0
H114 H 0.0653 0.75361 0.14562 0.0
H115 H 0.13324 0.66958 0.19781 0.0
H116 H 0.22662 0.63741 0.29766 0.0
H117 H 0.33336 0.77392 0.50566 0.0
H118 H 0.25738 0.85359 0.4627 0.0
C119 C 0.15967 0.83938 0.32465 0.0
C120 C 0.11179 0.82684 0.24839 0.0
C121 C 0.1996 0.79214 0.35372 0.0
C122 C 0.10198 0.76477 0.20412 0.0
C123 C 0.14086 0.71678 0.23384 0.0
C124 C 0.23299 0.68437 0.33422 0.0
C125 C 0.28572 0.69989 0.40463 0.0
C126 C 0.19058 0.73047 0.30758 0.0
C127 C 0.2934 0.76096 0.45103 0.0
C128 C 0.25007 0.80649 0.42642 0.0
H129 H 0.21351 0.8798 0.93519 0.0
H130 H 0.04153 0.84153 0.73092 0.0
H131 H 0.10121 0.76022 0.65444 0.0
H132 H 0.20645 0.70376 0.63798 0.0
H133 H 0.38382 0.74751 0.83309 0.0
H134 H 0.31808 0.82092 0.92062 0.0
C135 C 0.1891 0.85339 0.87433 0.0
C136 C 0.12368 0.86778 0.8385 0.0
C137 C 0.22462 0.80689 0.82876 0.0
C138 C 0.09271 0.83274 0.75935 0.0
C139 C 0.1265 0.78564 0.71552 0.0
C140 C 0.22969 0.72833 0.7008 0.0
C141 C 0.29925 0.71971 0.72976 0.0
C142 C 0.19297 0.77277 0.74865 0.0
C143 C 0.32986 0.75314 0.80993 0.0
C144 C 0.29252 0.79543 0.85977 0.0
H145 H 0.1413 0.20957 0.75723 0.0
H146 H 0.26604 0.11712 0.95287 0.0
H147 H 0.37548 0.20595 0.9211 0.0
H148 H 0.43584 0.30961 0.83727 0.0
H149 H 0.3093 0.40445 0.64608 0.0
H150 H 0.20043 0.31585 0.67802 0.0
C151 C 0.19287 0.20835 0.79155 0.0
C152 C 0.19611 0.15624 0.85582 0.0
C153 C 0.25492 0.26071 0.77516 0.0
C154 C 0.26258 0.15632 0.9021 0.0
C155 C 0.32496 0.20733 0.88453 0.0
C156 C 0.38421 0.3116 0.80363 0.0
C157 C 0.38123 0.36386 0.73919 0.0
C158 C 0.32166 0.26004 0.82164 0.0
C159 C 0.31359 0.36509 0.69611 0.0
C160 C 0.25122 0.31406 0.71373 0.0
H161 H 0.84659 0.13806 0.74261 0.0
H162 H 0.94744 0.27155 0.95766 0.0
H163 H 0.87664 0.35415 0.90677 0.0
H164 H 0.78258 0.38572 0.80592 0.0
H165 H 0.67874 0.24888 0.59655 0.0
H166 H 0.75539 0.16995 0.64089 0.0
C167 C 0.85369 0.18517 0.77888 0.0
C168 C 0.90237 0.19818 0.85467 0.0
C169 C 0.81222 0.23164 0.75029 0.0
C170 C 0.91057 0.25998 0.89943 0.0
C171 C 0.86991 0.30713 0.87043 0.0
C172 C 0.77674 0.33875 0.76951 0.0
C173 C 0.72469 0.32328 0.69779 0.0
C174 C 0.82001 0.29308 0.79664 0.0
C175 C 0.71804 0.2621 0.65188 0.0
C176 C 0.76185 0.21693 0.67732 0.0
H177 H 0.81738 0.87694 0.72856 0.0
H178 H 0.83223 0.75113 0.97112 0.0
H179 H 0.73458 0.66335 0.90862 0.0
H180 H 0.64069 0.62559 0.78677 0.0
H181 H 0.6253 0.76003 0.55392 0.0
H182 H 0.72793 0.84142 0.61168 0.0
C183 C 0.79956 0.83061 0.7688 0.0
C184 C 0.83169 0.82104 0.85502 0.0
C185 C 0.7432 0.78184 0.73396 0.0
C186 C 0.80832 0.75988 0.90451 0.0
C187 C 0.75241 0.70984 0.86893 0.0
C188 C 0.66046 0.67254 0.74869 0.0
C189 C 0.62559 0.68663 0.66609 0.0
C190 C 0.71885 0.72064 0.78395 0.0
C191 C 0.65095 0.74789 0.61776 0.0
C192 C 0.7097 0.79462 0.65064 0.0
loop_
_geom_bond_atom_site_label_1
_geom_bond_atom_site_label_2
_geom_bond_distance
_geom_bond_site_symmetry_2
_ccdc_geom_bond_type
Fe0 O1 1.886 . S
Fe0 O4 1.715 1_554 S
Fe0 O9 2.077 1_655 S
Fe0 O14 1.935 1_654 S
Fe0 O20 2.077 . S
Fe0 O29 1.935 1_554 S
O1 Fe0 1.886 . S
O1 Fe3 1.715 1_655 S
Fe2 O4 1.886 1_545 S
Fe2 O5 1.715 1_655 S
Fe2 O12 1.935 1_655 S
Fe2 O13 2.077 1_645 S
Fe2 O19 1.935 . S
Fe2 O28 2.077 1_545 S
Fe3 O1 1.715 1_455 S
Fe3 O6 1.886 1_565 S
Fe3 O10 1.935 . S
Fe3 O15 2.077 1_565 S
Fe3 O21 1.935 1_455 S
Fe3 O25 2.077 1_465 S
O4 Fe0 1.715 1_556 S
O4 Fe2 1.886 1_565 S
O5 Fe2 1.715 1_455 S
O5 Fe7 1.886 . S
O6 Fe3 1.886 1_545 S
O6 Fe7 1.715 1_554 S
Fe7 O5 1.886 . S
Fe7 O6 1.715 1_556 S
Fe7 O11 2.077 . S
Fe7 O16 1.935 1_556 S
Fe7 O18 2.077 1_455 S
Fe7 O26 1.935 1_456 S
C8 O20 1.381 . S
C8 O21 1.421 . S
O9 Fe0 2.077 1_455 S
O9 C22 1.381 . S
O10 Fe3 1.935 . S
O10 C22 1.421 . S
O11 Fe7 2.077 . S
O11 C27 1.381 . S
O12 Fe2 1.935 1_455 S
O12 C27 1.421 . S
O13 Fe2 2.077 1_465 S
O13 C17 1.381 . S
O14 Fe0 1.935 1_456 S
O14 C17 1.421 . S
O15 Fe3 2.077 1_545 S
O15 C23 1.381 . S
O16 Fe7 1.935 1_554 S
O16 C23 1.421 . S
C17 O13 1.381 . S
C17 O14 1.421 . S
O18 Fe7 2.077 1_655 S
O18 C30 1.381 . S
O19 Fe2 1.935 . S
O19 C30 1.421 . S
O20 Fe0 2.077 . S
O20 C8 1.381 . S
O21 Fe3 1.935 1_655 S
O21 C8 1.421 . S
C22 O9 1.381 . S
C22 O10 1.421 . S
C23 O15 1.381 . S
C23 O16 1.421 . S
C24 O25 1.381 . S
C24 O26 1.421 . S
O25 Fe3 2.077 1_645 S
O25 C24 1.381 . S
O26 Fe7 1.935 1_654 S
O26 C24 1.421 . S
C27 O11 1.381 . S
C27 O12 1.421 . S
O28 Fe2 2.077 1_565 S
O28 C31 1.381 . S
O29 Fe0 1.935 1_556 S
O29 C31 1.421 . S
C30 O18 1.381 . S
C30 O19 1.421 . S
C31 O28 1.381 . S
C31 O29 1.421 . S
Co32 O35 2.042 . S
Co32 O42 2.264 . S
Co32 O61 2.286 . S
Co32 O62 2.069 . S
Co32 O64 2.015 . S
Co33 O35 2.122 . S
Co33 O41 2.073 . S
Co33 O42 2.327 . S
Co33 O43 1.976 . S
Co34 O35 2.087 . S
Co34 O37 2.087 . S
Co34 O44 2.111 . S
Co34 O45 2.143 . S
Co34 O49 2.111 . S
Co34 O63 2.143 . S
O35 Co32 2.042 . S
O35 Co33 2.122 . S
O35 Co34 2.087 . S
O35 H36 0.980 . S
H36 O35 0.980 . S
O37 Co34 2.087 . S
O37 Co38 2.042 . S
O37 Co39 2.122 . S
O37 H40 0.980 . S
Co38 O37 2.042 . S
Co38 O46 2.286 . S
Co38 O47 2.069 . S
Co38 O48 2.015 . S
Co38 O51 2.264 . S
Co39 O37 2.122 . S
Co39 O50 1.976 . S
Co39 O51 2.327 . S
Co39 O52 2.073 . S
H40 O37 0.980 . S
O41 Co33 2.073 . S
O41 C56 1.245 . S
O42 Co32 2.264 . S
O42 Co33 2.327 . S
O42 C56 1.257 . S
O43 Co33 1.976 . S
O43 C55 1.251 . S
O44 Co34 2.111 . S
O44 C55 1.274 . S
O45 Co34 2.143 . S
O45 C58 1.246 . S
O46 Co38 2.286 . S
O46 C57 1.259 . S
O47 Co38 2.069 . S
O47 C57 1.289 . S
O48 Co38 2.015 . S
O48 C58 1.257 . S
O49 Co34 2.111 . S
O49 C59 1.274 . S
O50 Co39 1.976 . S
O50 C59 1.251 . S
O51 Co38 2.264 . S
O51 Co39 2.327 . S
O51 C60 1.257 . S
O52 Co39 2.073 . S
O52 C60 1.245 . S
C53 O61 1.259 . S
C53 O62 1.289 . S
C54 O63 1.246 . S
C54 O64 1.257 . S
C55 O43 1.251 . S
C55 O44 1.274 . S
C56 O41 1.245 . S
C56 O42 1.257 . S
C57 O46 1.259 . S
C57 O47 1.289 . S
C58 O45 1.246 . S
C58 O48 1.257 . S
C59 O49 1.274 . S
C59 O50 1.251 . S
C60 O51 1.257 . S
C60 O52 1.245 . S
O61 Co32 2.286 . S
O61 C53 1.259 . S
O62 Co32 2.069 . S
O62 C53 1.289 . S
O63 Co34 2.143 . S
O63 C54 1.246 . S
O64 Co32 2.015 . S
O64 C54 1.257 . S
H65 C71 0.930 . S
H66 C74 0.930 . S
H67 C75 0.930 . S
H68 C76 0.930 . S
H69 C79 0.930 . S
H70 C80 0.930 . S
C71 H65 0.930 . S
C71 C72 1.355 . S
C71 C73 1.415 . S
C72 C71 1.355 . S
C72 C74 1.419 . S
C73 C71 1.415 . S
C73 C78 1.425 . S
C73 C80 1.409 . S
C74 H66 0.930 . S
C74 C72 1.419 . S
C74 C75 1.362 . S
C75 H67 0.930 . S
C75 C74 1.362 . S
C75 C78 1.409 . S
C76 H68 0.930 . S
C76 C77 1.355 . S
C76 C78 1.415 . S
C77 C76 1.355 . S
C77 C79 1.419 . S
C78 C73 1.425 . S
C78 C75 1.409 . S
C78 C76 1.415 . S
C79 H69 0.930 . S
C79 C77 1.419 . S
C79 C80 1.362 . S
C80 H70 0.930 . S
C80 C73 1.409 . S
C80 C79 1.362 . S
H81 C87 0.930 . S
H82 C90 0.930 . S
H83 C91 0.930 . S
H84 C92 0.930 . S
H85 C95 0.930 . S
H86 C96 0.930 . S
C87 H81 0.930 . S
C87 C88 1.355 . S
C87 C89 1.415 . S
C88 C87 1.355 . S
C88 C90 1.419 . S
C89 C87 1.415 . S
C89 C94 1.425 . S
C89 C96 1.409 . S
C90 H82 0.930 . S
C90 C88 1.419 . S
C90 C91 1.362 . S
C91 H83 0.930 . S
C91 C90 1.362 . S
C91 C94 1.409 . S
C92 H84 0.930 . S
C92 C93 1.355 . S
C92 C94 1.415 . S
C93 C92 1.355 . S
C93 C95 1.419 . S
C94 C89 1.425 . S
C94 C91 1.409 . S
C94 C92 1.415 . S
C95 H85 0.930 . S
C95 C93 1.419 . S
C95 C96 1.362 . S
C96 H86 0.930 . S
C96 C89 1.409 . S
C96 C95 1.362 . S
H97 C103 0.930 . S
H98 C106 0.930 . S
H99 C107 0.930 . S
H100 C108 0.930 . S
H101 C111 0.930 . S
H102 C112 0.930 . S
C103 H97 0.930 . S
C103 C104 1.355 . S
C103 C105 1.415 . S
C104 C103 1.355 . S
C104 C106 1.419 . S
C105 C103 1.415 . S
C105 C110 1.425 . S
C105 C112 1.409 . S
C106 H98 0.930 . S
C106 C104 1.419 . S
C106 C107 1.362 . S
C107 H99 0.930 . S
C107 C106 1.362 . S
C107 C110 1.409 . S
C108 H100 0.930 . S
C108 C109 1.355 . S
C108 C110 1.415 . S
C109 C108 1.355 . S
C109 C111 1.419 . S
C110 C105 1.425 . S
C110 C107 1.409 . S
C110 C108 1.415 . S
C111 H101 0.930 . S
C111 C109 1.419 . S
C111 C112 1.362 . S
C112 H102 0.930 . S
C112 C105 1.409 . S
C112 C111 1.362 . S
H113 C119 0.930 . S
H114 C122 0.930 . S
H115 C123 0.930 . S
H116 C124 0.930 . S
H117 C127 0.930 . S
H118 C128 0.930 . S
C119 H113 0.930 . S
C119 C120 1.355 . S
C119 C121 1.415 . S
C120 C119 1.355 . S
C120 C122 1.419 . S
C121 C119 1.415 . S
C121 C126 1.425 . S
C121 C128 1.409 . S
C122 H114 0.930 . S
C122 C120 1.419 . S
C122 C123 1.362 . S
C123 H115 0.930 . S
C123 C122 1.362 . S
C123 C126 1.409 . S
C124 H116 0.930 . S
C124 C125 1.355 . S
C124 C126 1.415 . S
C125 C124 1.355 . S
C125 C127 1.419 . S
C126 C121 1.425 . S
C126 C123 1.409 . S
C126 C124 1.415 . S
C127 H117 0.930 . S
C127 C125 1.419 . S
C127 C128 1.362 . S
C128 H118 0.930 . S
C128 C121 1.409 . S
C128 C127 1.362 . S
H129 C135 0.930 . S
H130 C138 0.930 . S
H131 C139 0.930 . S
H132 C140 0.930 . S
H133 C143 0.930 . S
H134 C144 0.930 . S
C135 H129 0.930 . S
C135 C136 1.355 . S
C135 C137 1.415 . S
C136 C135 1.355 . S
C136 C138 1.419 . S
C137 C135 1.415 . S
C137 C142 1.425 . S
C137 C144 1.409 . S
C138 H130 0.930 . S
C138 C136 1.419 . S
C138 C139 1.362 . S
C139 H131 0.930 . S
C139 C138 1.362 . S
C139 C142 1.409 . S
C140 H132 0.930 . S
C140 C141 1.355 . S
C140 C142 1.415 . S
C141 C140 1.355 . S
C141 C143 1.419 . S
C142 C137 1.425 . S
C142 C139 1.409 . S
C142 C140 1.415 . S
C143 H133 0.930 . S
C143 C141 1.419 . S
C143 C144 1.362 . S
C144 H134 0.930 . S
C144 C137 1.409 . S
C144 C143 1.362 . S
H145 C151 0.930 . S
H146 C154 0.930 . S
H147 C155 0.930 . S
H148 C156 0.930 . S
H149 C159 0.930 . S
H150 C160 0.930 . S
C151 H145 0.930 . S
C151 C152 1.355 . S
C151 C153 1.415 . S
C152 C151 1.355 . S
C152 C154 1.419 . S
C153 C151 1.415 . S
C153 C158 1.425 . S
C153 C160 1.409 . S
C154 H146 0.930 . S
C154 C152 1.419 . S
C154 C155 1.362 . S
C155 H147 0.930 . S
C155 C154 1.362 . S
C155 C158 1.409 . S
C156 H148 0.930 . S
C156 C157 1.355 . S
C156 C158 1.415 . S
C157 C156 1.355 . S
C157 C159 1.419 . S
C158 C153 1.425 . S
C158 C155 1.409 . S
C158 C156 1.415 . S
C159 H149 0.930 . S
C159 C157 1.419 . S
C159 C160 1.362 . S
C160 H150 0.930 . S
C160 C153 1.409 . S
C160 C159 1.362 . S
H161 C167 0.930 . S
H162 C170 0.930 . S
H163 C171 0.930 . S
H164 C172 0.930 . S
H165 C175 0.930 . S
H166 C176 0.930 . S
C167 H161 0.930 . S
C167 C168 1.355 . S
C167 C169 1.415 . S
C168 C167 1.355 . S
C168 C170 1.419 . S
C169 C167 1.415 . S
C169 C174 1.425 . S
C169 C176 1.409 . S
C170 H162 0.930 . S
C170 C168 1.419 . S
C170 C171 1.362 . S
C171 H163 0.930 . S
C171 C170 1.362 . S
C171 C174 1.409 . S
C172 H164 0.930 . S
C172 C173 1.355 . S
C172 C174 1.415 . S
C173 C172 1.355 . S
C173 C175 1.419 . S
C174 C169 1.425 . S
C174 C171 1.409 . S
C174 C172 1.415 . S
C175 H165 0.930 . S
C175 C173 1.419 . S
C175 C176 1.362 . S
C176 H166 0.930 . S
C176 C169 1.409 . S
C176 C175 1.362 . S
H177 C183 0.930 . S
H178 C186 0.930 . S
H179 C187 0.930 . S
H180 C188 0.930 . S
H181 C191 0.930 . S
H182 C192 0.930 . S
C183 H177 0.930 . S
C183 C184 1.355 . S
C183 C185 1.415 . S
C184 C183 1.355 . S
C184 C186 1.419 . S
C185 C183 1.415 . S
C185 C190 1.425 . S
C185 C192 1.409 . S
C186 H178 0.930 . S
C186 C184 1.419 . S
C186 C187 1.362 . S
C187 H179 0.930 . S
C187 C186 1.362 . S
C187 C190 1.409 . S
C188 H180 0.930 . S
C188 C189 1.355 . S
C188 C190 1.415 . S
C189 C188 1.355 . S
C189 C191 1.419 . S
C190 C185 1.425 . S
C190 C187 1.409 . S
C190 C188 1.415 . S
C191 H181 0.930 . S
C191 C189 1.419 . S
C191 C192 1.362 . S
C192 H182 0.930 . S
C192 C185 1.409 . S
C192 C191 1.362 . S
C72 C23 1.500 . S
C77 C54 1.501 . S
C88 C24 1.534 . S
C93 C53 1.566 . S
C104 C8 1.432 . S
C109 C59 1.349 . S
C120 C22 1.468 . S
C125 C60 1.454 . S
C136 C17 1.524 . S
C141 C57 1.571 . S
C157 C55 1.362 . S
C152 C27 1.433 . S
C168 C30 1.489 . S
C173 C56 1.458 . S
C189 C58 1.455 . S
C184 C31 1.449 . S
