# Generated by pormake.
# Topology bcu-b, (8,8)-cn, num edge types: 1
# Building blocks:
#     Node 0, Type 0, BuildingBlock: VETTIZ_charged_sbu_0, # of connection points: 8
#     Node 1, Type 1, BuildingBlock: TAGTUT_clean_sbu_1, # of connection points: 8
#     Edge 2, Type (0, 1), BuildingBlock: EZIPEK_clean_linker_0, # of connection points: 2
#     Edge 3, Type (0, 1), BuildingBlock: EZIPEK_clean_linker_0, # of connection points: 2
#     Edge 4, Type (0, 1), BuildingBlock: EZIPEK_clean_linker_0, # of connection points: 2
#     Edge 5, Type (0, 1), BuildingBlock: EZIPEK_clean_linker_0, # of connection points: 2
#     Edge 6, Type (0, 1), BuildingBlock: EZIPEK_clean_linker_0, # of connection points: 2
#     Edge 7, Type (0, 1), BuildingBlock: EZIPEK_clean_linker_0, # of connection points: 2
#     Edge 8, Type (0, 1), BuildingBlock: EZIPEK_clean_linker_0, # of connection points: 2
#     Edge 9, Type (0, 1), BuildingBlock: EZIPEK_clean_linker_0, # of connection points: 2
# Relax obj value: 0.025
# Max RMSD: 0.113
# Mean RMSD: 0.086
data_MOF--net-bcu-b--node1-VETTIZ_charged_sbu_0--node2-TAGTUT_clean_sbu_1--edge1-EZIPEK_clean_linker_0
_symmetry_space_group_name_H-M    P1
_symmetry_Int_Tables_number       1
_symmetry_cell_setting            triclinic
loop_
_symmetry_equiv_pos_as_xyz
'x, y, z'
_cell_length_a     15.510314
_cell_length_b     15.1389
_cell_length_c     15.611084
_cell_angle_alpha  89.493619
_cell_angle_beta   92.058712
_cell_angle_gamma 101.13948
loop_
_atom_site_label
_atom_site_type_symbol
_atom_site_fract_x
_atom_site_fract_y
_atom_site_fract_z
_atom_type_partial_charge
Fe0 Fe 0.97689 0.88372 0.99417 0.0
O1 O 0.94012 0.97428 0.06953 0.0
Fe2 Fe 0.05041 0.01043 0.81627 0.0
Fe3 Fe 0.93887 0.96229 0.19432 0.0
O4 O 0.04816 -0.00708 0.94042 0.0
O5 O 0.05226 0.00325 0.94299 0.0
O6 O 0.94143 0.98365 0.07039 0.0
Fe7 Fe 0.00902 0.09387 0.01473 0.0
C8 C 0.83675 0.78823 0.11863 0.0
O9 O 0.08333 0.87419 0.07431 0.0
O10 O 0.02157 0.86752 0.20143 0.0
O11 O 0.09352 0.1955 0.94481 0.0
O12 O 0.15133 0.11458 0.84423 0.0
O13 O 0.11799 0.90707 0.82492 0.0
O14 O 0.02706 0.80364 0.90765 0.0
O15 O 0.04422 0.06249 0.22262 0.0
O16 O 0.11331 0.10277 0.10166 0.0
C17 C 0.08764 0.82606 0.85173 0.0
O18 O 0.90353 0.09509 0.93161 0.0
O19 O 0.97096 0.10555 0.80797 0.0
O20 O 0.89521 0.78108 0.06247 0.0
O21 O 0.8364 0.85928 0.16373 0.0
C22 C 0.08182 0.8521 0.15304 0.0
C23 C 0.10817 0.10746 0.18274 0.0
C24 C 0.88655 0.1445 0.15245 0.0
O25 O 0.86941 0.06411 0.18572 0.0
O26 O 0.9475 0.17145 0.09702 0.0
C27 C 0.15323 0.18615 0.88976 0.0
O28 O 0.94339 0.91074 0.79033 0.0
O29 O 0.87043 0.8857 0.91093 0.0
C30 C 0.90762 0.11763 0.85333 0.0
C31 C 0.87472 0.87738 0.83011 0.0
C32 C 0.25531 0.67255 0.59799 0.0
C33 C 0.33042 0.67386 0.33393 0.0
C34 C 0.36336 0.3186 0.41422 0.0
Mg35 Mg 0.43168 0.69553 0.50912 0.0
O36 O 0.40583 0.57258 0.52729 0.0
Mg37 Mg 0.293 0.50049 0.48074 0.0
Mg38 Mg 0.49021 0.49362 0.50796 0.0
O39 O 0.5716 0.41234 0.49129 0.0
Mg40 Mg 0.546 0.2892 0.49909 0.0
Mg41 Mg 0.68548 0.47724 0.53651 0.0
C42 C 0.614 0.66581 0.60275 0.0
C43 C 0.63578 0.58658 0.37041 0.0
O44 O 0.2286 0.59626 0.56075 0.0
O45 O 0.32963 0.7231 0.58457 0.0
O46 O 0.29088 0.59659 0.36088 0.0
O47 O 0.39413 0.71987 0.37824 0.0
O48 O 0.56085 0.71581 0.57419 0.0
O49 O 0.59932 0.57974 0.59082 0.0
C50 C 0.35105 0.39677 0.65045 0.0
O51 O 0.43196 0.41615 0.63015 0.0
O52 O 0.29079 0.41797 0.60172 0.0
O53 O 0.75129 0.37541 0.45634 0.0
O54 O 0.63409 0.27836 0.40359 0.0
O55 O 0.68193 0.38804 0.65747 0.0
C56 C 0.71555 0.31386 0.40235 0.0
O57 O 0.61049 0.25121 0.61627 0.0
O58 O 0.41259 0.26596 0.44522 0.0
C59 C 0.66398 0.30247 0.66737 0.0
O60 O 0.38195 0.40502 0.42316 0.0
O61 O 0.55397 0.57716 0.38782 0.0
O62 O 0.68766 0.55219 0.4187 0.0
C63 C 0.14612 0.2222 0.30074 0.0
C64 C 0.17499 0.17112 0.23462 0.0
C65 C 0.32682 0.24099 0.27385 0.0
C66 C 0.29737 0.27787 0.34841 0.0
N67 N 0.17899 0.29092 0.43974 0.0
N68 N 0.29641 0.12235 0.16803 0.0
C69 C 0.20705 0.26536 0.36366 0.0
C70 C 0.26645 0.17852 0.22296 0.0
N71 N 0.06089 0.2326 0.30221 0.0
N72 N 0.41257 0.26591 0.25162 0.0
H73 H 0.25519 0.0723 0.13257 0.0
H74 H 0.36264 0.11895 0.16451 0.0
H75 H 0.45844 0.31238 0.2869 0.0
H76 H 0.43571 0.24762 0.19382 0.0
H77 H 0.03889 0.2764 0.34371 0.0
H78 H 0.01469 0.20625 0.25532 0.0
H79 H 0.11397 0.27357 0.45827 0.0
H80 H 0.22226 0.32209 0.48747 0.0
C81 C 0.87239 0.29671 0.21878 0.0
C82 C 0.83506 0.20768 0.19056 0.0
C83 C 0.7343 0.18979 0.30645 0.0
C84 C 0.7659 0.27948 0.33443 0.0
N85 N 0.84817 0.42725 0.297 0.0
N86 N 0.70142 0.09622 0.18136 0.0
C87 C 0.83035 0.33622 0.28498 0.0
C88 C 0.75461 0.16504 0.22452 0.0
N89 N 0.94694 0.34359 0.18385 0.0
N90 N 0.68896 0.12635 0.35939 0.0
H91 H 0.71572 0.07758 0.11993 0.0
H92 H 0.64014 0.06533 0.20345 0.0
H93 H 0.68167 0.13841 0.42422 0.0
H94 H 0.6693 0.05906 0.34131 0.0
H95 H 0.98295 0.4028 0.21064 0.0
H96 H 0.97386 0.32269 0.12932 0.0
H97 H 0.88813 0.47148 0.25686 0.0
H98 H 0.81639 0.45977 0.34104 0.0
C99 C 0.69029 0.69142 0.1466 0.0
C100 C 0.78337 0.707 0.15589 0.0
C101 C 0.77261 0.66647 0.30436 0.0
C102 C 0.6793 0.63806 0.29589 0.0
N103 N 0.5515 0.60914 0.19791 0.0
N104 N 0.90872 0.67235 0.23368 0.0
C105 C 0.63803 0.6458 0.21355 0.0
C106 C 0.82215 0.67832 0.2306 0.0
N107 N 0.65247 0.72233 0.07512 0.0
N108 N 0.81411 0.68827 0.38221 0.0
H109 H 0.94595 0.68133 0.17894 0.0
H110 H 0.93908 0.64901 0.28775 0.0
H111 H 0.78019 0.69161 0.43809 0.0
H112 H 0.88139 0.71437 0.38871 0.0
H113 H 0.58526 0.72173 0.06829 0.0
H114 H 0.69019 0.75201 0.02458 0.0
H115 H 0.52177 0.60724 0.13684 0.0
H116 H 0.51106 0.5745 0.24379 0.0
C117 C 0.15693 0.71653 0.16491 0.0
C118 C 0.15289 0.80626 0.18922 0.0
C119 C 0.29505 0.81551 0.26593 0.0
C120 C 0.2865 0.72051 0.26306 0.0
N121 N 0.21816 0.58213 0.19345 0.0
N122 N 0.21713 0.93812 0.27207 0.0
C123 C 0.22008 0.67143 0.20706 0.0
C124 C 0.2216 0.85476 0.24252 0.0
N125 N 0.10148 0.67489 0.10117 0.0
N126 N 0.37441 0.86914 0.2859 0.0
H127 H 0.16379 0.96854 0.25807 0.0
H128 H 0.2624 0.97254 0.31709 0.0
H129 H 0.43245 0.84399 0.29022 0.0
H130 H 0.38451 0.93925 0.2837 0.0
H131 H 0.10647 0.6133 0.0747 0.0
H132 H 0.05381 0.70485 0.07022 0.0
H133 H 0.16538 0.53899 0.16368 0.0
H134 H 0.2704 0.55138 0.2127 0.0
C135 C 0.0705 0.71621 0.73443 0.0
C136 C 0.12011 0.75532 0.80695 0.0
C137 C 0.25253 0.71645 0.75174 0.0
C138 C 0.20662 0.69555 0.67116 0.0
N139 N 0.07255 0.68051 0.58397 0.0
N140 N 0.25499 0.78825 0.89046 0.0
C141 C 0.1152 0.69481 0.66229 0.0
C142 C 0.20998 0.75248 0.81795 0.0
N143 N 0.98093 0.70192 0.73421 0.0
N144 N 0.33573 0.70021 0.76577 0.0
H145 H 0.22313 0.80918 0.94225 0.0
H146 H 0.32321 0.8004 0.89806 0.0
H147 H 0.37 0.67234 0.72027 0.0
H148 H 0.36812 0.70575 0.82561 0.0
H149 H 0.94032 0.66743 0.68586 0.0
H150 H 0.94759 0.71593 0.78754 0.0
H151 H 0.00798 0.68851 0.57227 0.0
H152 H 0.10378 0.66861 0.5284 0.0
C153 C 0.30459 0.23471 0.83936 0.0
C154 C 0.22762 0.26115 0.86822 0.0
C155 C 0.26533 0.39908 0.78379 0.0
C156 C 0.32366 0.35791 0.73583 0.0
N157 N 0.39817 0.23331 0.71922 0.0
N158 N 0.14968 0.38186 0.88745 0.0
C159 C 0.34551 0.27612 0.76542 0.0
C160 C 0.21341 0.34844 0.84772 0.0
N161 N 0.33517 0.16665 0.88082 0.0
N162 N 0.26062 0.48686 0.7682 0.0
H163 H 0.11995 0.35219 0.9421 0.0
H164 H 0.12673 0.43903 0.86709 0.0
H165 H 0.29945 0.52527 0.72316 0.0
H166 H 0.22472 0.52362 0.80413 0.0
H167 H 0.39429 0.1479 0.86659 0.0
H168 H 0.30495 0.13599 0.93518 0.0
H169 H 0.40581 0.16761 0.73243 0.0
H170 H 0.42867 0.26023 0.66389 0.0
C171 C 0.87467 0.25108 0.77268 0.0
C172 C 0.8428 0.16938 0.81581 0.0
C173 C 0.6916 0.18845 0.7801 0.0
C174 C 0.7246 0.26079 0.7244 0.0
N175 N 0.8521 0.34456 0.65267 0.0
N176 N 0.71898 0.05402 0.85321 0.0
C177 C 0.81735 0.28822 0.71691 0.0
C178 C 0.75053 0.13647 0.81831 0.0
N179 N 0.95973 0.29467 0.78591 0.0
N180 N 0.6045 0.17079 0.798 0.0
H181 H 0.75957 0.01325 0.8805 0.0
H182 H 0.65299 0.02275 0.84837 0.0
H183 H 0.56111 0.20993 0.77318 0.0
H184 H 0.57771 0.12413 0.84396 0.0
H185 H 0.98359 0.35901 0.76213 0.0
H186 H 0.00313 0.27134 0.82882 0.0
H187 H 0.91898 0.35784 0.64025 0.0
H188 H 0.81476 0.36962 0.60526 0.0
C189 C 0.76406 0.73279 0.80047 0.0
C190 C 0.80156 0.82299 0.77792 0.0
C191 C 0.73345 0.79759 0.63407 0.0
C192 C 0.68735 0.71172 0.65966 0.0
N193 N 0.64251 0.60846 0.77678 0.0
N194 N 0.80178 0.94722 0.67979 0.0
C195 C 0.69803 0.68196 0.74547 0.0
C196 C 0.78024 0.85705 0.69654 0.0
N197 N 0.79386 0.69338 0.87171 0.0
N198 N 0.73274 0.82263 0.54973 0.0
H199 H 0.83254 -0.00632 0.72534 0.0
H200 H 0.78018 0.97679 0.62457 0.0
H201 H 0.69854 0.78137 0.50164 0.0
H202 H 0.77276 0.88063 0.5266 0.0
H203 H 0.77466 0.62503 0.88538 0.0
H204 H 0.84472 0.72583 0.91197 0.0
H205 H 0.64207 0.591 0.84154 0.0
H206 H 0.5911 0.57006 0.74087 0.0
loop_
_geom_bond_atom_site_label_1
_geom_bond_atom_site_label_2
_geom_bond_distance
_geom_bond_site_symmetry_2
_ccdc_geom_bond_type
Fe0 O1 1.886 . S
Fe0 O4 1.715 1_554 S
Fe0 O9 2.077 1_655 S
Fe0 O14 1.935 1_654 S
Fe0 O20 2.077 . S
Fe0 O29 1.935 1_554 S
O1 Fe0 1.886 . S
O1 Fe3 1.715 1_665 S
Fe2 O4 1.886 . S
Fe2 O5 1.715 1_665 S
Fe2 O12 1.935 1_665 S
Fe2 O13 2.077 1_655 S
Fe2 O19 1.935 1_565 S
Fe2 O28 2.077 . S
Fe3 O1 1.715 1_445 S
Fe3 O6 1.886 . S
Fe3 O10 1.935 1_545 S
Fe3 O15 2.077 . S
Fe3 O21 1.935 1_445 S
Fe3 O25 2.077 1_455 S
O4 Fe0 1.715 1_556 S
O4 Fe2 1.886 . S
O5 Fe2 1.715 1_445 S
O5 Fe7 1.886 . S
O6 Fe3 1.886 . S
O6 Fe7 1.715 1_554 S
Fe7 O5 1.886 . S
Fe7 O6 1.715 1_556 S
Fe7 O11 2.077 . S
Fe7 O16 1.935 1_556 S
Fe7 O18 2.077 1_455 S
Fe7 O26 1.935 1_456 S
C8 O20 1.381 . S
C8 O21 1.421 . S
O9 Fe0 2.077 1_455 S
O9 C22 1.381 . S
O10 Fe3 1.935 1_565 S
O10 C22 1.421 . S
O11 Fe7 2.077 . S
O11 C27 1.381 . S
O12 Fe2 1.935 1_445 S
O12 C27 1.421 . S
O13 Fe2 2.077 1_455 S
O13 C17 1.381 . S
O14 Fe0 1.935 1_456 S
O14 C17 1.421 . S
O15 Fe3 2.077 . S
O15 C23 1.381 . S
O16 Fe7 1.935 1_554 S
O16 C23 1.421 . S
C17 O13 1.381 . S
C17 O14 1.421 . S
O18 Fe7 2.077 1_655 S
O18 C30 1.381 . S
O19 Fe2 1.935 1_545 S
O19 C30 1.421 . S
O20 Fe0 2.077 . S
O20 C8 1.381 . S
O21 Fe3 1.935 1_665 S
O21 C8 1.421 . S
C22 O9 1.381 . S
C22 O10 1.421 . S
C23 O15 1.381 . S
C23 O16 1.421 . S
C24 O25 1.381 . S
C24 O26 1.421 . S
O25 Fe3 2.077 1_655 S
O25 C24 1.381 . S
O26 Fe7 1.935 1_654 S
O26 C24 1.421 . S
C27 O11 1.381 . S
C27 O12 1.421 . S
O28 Fe2 2.077 . S
O28 C31 1.381 . S
O29 Fe0 1.935 1_556 S
O29 C31 1.421 . S
C30 O18 1.381 . S
C30 O19 1.421 . S
C31 O28 1.381 . S
C31 O29 1.421 . S
C32 O44 1.241 . S
C32 O45 1.280 . S
C33 O46 1.277 . S
C33 O47 1.245 . S
C34 O58 1.247 . S
C34 O60 1.289 . S
Mg35 O36 1.926 . S
Mg35 O45 1.984 . S
Mg35 O47 1.988 . S
Mg35 O48 2.061 . S
O36 Mg35 1.926 . S
O36 Mg37 1.986 . S
O36 Mg38 1.917 . S
Mg37 O36 1.986 . S
Mg37 O44 2.042 . S
Mg37 O46 2.041 . S
Mg37 O52 2.038 . S
Mg37 O60 2.238 . S
Mg38 O36 1.917 . S
Mg38 O39 1.917 . S
Mg38 O49 2.106 . S
Mg38 O51 2.079 . S
Mg38 O60 2.106 . S
Mg38 O61 2.079 . S
O39 Mg38 1.917 . S
O39 Mg40 1.926 . S
O39 Mg41 1.986 . S
Mg40 O39 1.926 . S
Mg40 O54 1.984 . S
Mg40 O57 1.988 . S
Mg40 O58 2.061 . S
Mg41 O39 1.986 . S
Mg41 O49 2.238 . S
Mg41 O53 2.042 . S
Mg41 O55 2.041 . S
Mg41 O62 2.038 . S
C42 O48 1.247 . S
C42 O49 1.289 . S
C43 O61 1.245 . S
C43 O62 1.274 . S
O44 C32 1.241 . S
O44 Mg37 2.042 . S
O45 C32 1.280 . S
O45 Mg35 1.984 . S
O46 C33 1.277 . S
O46 Mg37 2.041 . S
O47 C33 1.245 . S
O47 Mg35 1.988 . S
O48 Mg35 2.061 . S
O48 C42 1.247 . S
O49 Mg38 2.106 . S
O49 Mg41 2.238 . S
O49 C42 1.289 . S
C50 O51 1.245 . S
C50 O52 1.274 . S
O51 Mg38 2.079 . S
O51 C50 1.245 . S
O52 Mg37 2.038 . S
O52 C50 1.274 . S
O53 Mg41 2.042 . S
O53 C56 1.241 . S
O54 Mg40 1.984 . S
O54 C56 1.280 . S
O55 Mg41 2.041 . S
O55 C59 1.277 . S
C56 O53 1.241 . S
C56 O54 1.280 . S
O57 Mg40 1.988 . S
O57 C59 1.245 . S
O58 C34 1.247 . S
O58 Mg40 2.061 . S
C59 O55 1.277 . S
C59 O57 1.245 . S
O60 C34 1.289 . S
O60 Mg37 2.238 . S
O60 Mg38 2.106 . S
O61 Mg38 2.079 . S
O61 C43 1.245 . S
O62 Mg41 2.038 . S
O62 C43 1.274 . S
C63 C64 1.363 . S
C63 C69 1.379 . S
C63 N71 1.356 . S
C64 C63 1.363 . S
C64 C70 1.363 . S
C65 C66 1.363 . S
C65 C70 1.379 . S
C65 N72 1.356 . S
C66 C65 1.363 . S
C66 C69 1.363 . S
N67 C69 1.356 . S
N67 H79 0.984 . S
N67 H80 0.985 . S
N68 C70 1.356 . S
N68 H73 0.984 . S
N68 H74 0.985 . S
C69 C63 1.379 . S
C69 C66 1.363 . S
C69 N67 1.356 . S
C70 C64 1.363 . S
C70 C65 1.379 . S
C70 N68 1.356 . S
N71 C63 1.356 . S
N71 H77 0.984 . S
N71 H78 0.984 . S
N72 C65 1.356 . S
N72 H75 0.984 . S
N72 H76 0.985 . S
H73 N68 0.984 . S
H74 N68 0.985 . S
H75 N72 0.984 . S
H76 N72 0.985 . S
H77 N71 0.984 . S
H78 N71 0.984 . S
H79 N67 0.984 . S
H80 N67 0.985 . S
C81 C82 1.363 . S
C81 C87 1.379 . S
C81 N89 1.356 . S
C82 C81 1.363 . S
C82 C88 1.363 . S
C83 C84 1.363 . S
C83 C88 1.379 . S
C83 N90 1.356 . S
C84 C83 1.363 . S
C84 C87 1.363 . S
N85 C87 1.356 . S
N85 H97 0.984 . S
N85 H98 0.985 . S
N86 C88 1.356 . S
N86 H91 0.984 . S
N86 H92 0.985 . S
C87 C81 1.379 . S
C87 C84 1.363 . S
C87 N85 1.356 . S
C88 C82 1.363 . S
C88 C83 1.379 . S
C88 N86 1.356 . S
N89 C81 1.356 . S
N89 H95 0.984 . S
N89 H96 0.984 . S
N90 C83 1.356 . S
N90 H93 0.984 . S
N90 H94 0.985 . S
H91 N86 0.984 . S
H92 N86 0.985 . S
H93 N90 0.984 . S
H94 N90 0.985 . S
H95 N89 0.984 . S
H96 N89 0.984 . S
H97 N85 0.984 . S
H98 N85 0.985 . S
C99 C100 1.363 . S
C99 C105 1.379 . S
C99 N107 1.356 . S
C100 C99 1.363 . S
C100 C106 1.363 . S
C101 C102 1.363 . S
C101 C106 1.379 . S
C101 N108 1.356 . S
C102 C101 1.363 . S
C102 C105 1.363 . S
N103 C105 1.356 . S
N103 H115 0.984 . S
N103 H116 0.985 . S
N104 C106 1.356 . S
N104 H109 0.984 . S
N104 H110 0.985 . S
C105 C99 1.379 . S
C105 C102 1.363 . S
C105 N103 1.356 . S
C106 C100 1.363 . S
C106 C101 1.379 . S
C106 N104 1.356 . S
N107 C99 1.356 . S
N107 H113 0.984 . S
N107 H114 0.984 . S
N108 C101 1.356 . S
N108 H111 0.984 . S
N108 H112 0.985 . S
H109 N104 0.984 . S
H110 N104 0.985 . S
H111 N108 0.984 . S
H112 N108 0.985 . S
H113 N107 0.984 . S
H114 N107 0.984 . S
H115 N103 0.984 . S
H116 N103 0.985 . S
C117 C118 1.363 . S
C117 C123 1.379 . S
C117 N125 1.356 . S
C118 C117 1.363 . S
C118 C124 1.363 . S
C119 C120 1.363 . S
C119 C124 1.379 . S
C119 N126 1.356 . S
C120 C119 1.363 . S
C120 C123 1.363 . S
N121 C123 1.356 . S
N121 H133 0.984 . S
N121 H134 0.985 . S
N122 C124 1.356 . S
N122 H127 0.984 . S
N122 H128 0.985 . S
C123 C117 1.379 . S
C123 C120 1.363 . S
C123 N121 1.356 . S
C124 C118 1.363 . S
C124 C119 1.379 . S
C124 N122 1.356 . S
N125 C117 1.356 . S
N125 H131 0.984 . S
N125 H132 0.984 . S
N126 C119 1.356 . S
N126 H129 0.984 . S
N126 H130 0.985 . S
H127 N122 0.984 . S
H128 N122 0.985 . S
H129 N126 0.984 . S
H130 N126 0.985 . S
H131 N125 0.984 . S
H132 N125 0.984 . S
H133 N121 0.984 . S
H134 N121 0.985 . S
C135 C136 1.363 . S
C135 C141 1.379 . S
C135 N143 1.356 . S
C136 C135 1.363 . S
C136 C142 1.363 . S
C137 C138 1.363 . S
C137 C142 1.379 . S
C137 N144 1.356 . S
C138 C137 1.363 . S
C138 C141 1.363 . S
N139 C141 1.356 . S
N139 H151 0.984 . S
N139 H152 0.985 . S
N140 C142 1.356 . S
N140 H145 0.984 . S
N140 H146 0.985 . S
C141 C135 1.379 . S
C141 C138 1.363 . S
C141 N139 1.356 . S
C142 C136 1.363 . S
C142 C137 1.379 . S
C142 N140 1.356 . S
N143 C135 1.356 . S
N143 H149 0.984 1_455 S
N143 H150 0.984 . S
N144 C137 1.356 . S
N144 H147 0.984 . S
N144 H148 0.985 . S
H145 N140 0.984 . S
H146 N140 0.985 . S
H147 N144 0.984 . S
H148 N144 0.985 . S
H149 N143 0.984 1_655 S
H150 N143 0.984 . S
H151 N139 0.984 . S
H152 N139 0.985 . S
C153 C154 1.363 . S
C153 C159 1.379 . S
C153 N161 1.356 . S
C154 C153 1.363 . S
C154 C160 1.363 . S
C155 C156 1.363 . S
C155 C160 1.379 . S
C155 N162 1.356 . S
C156 C155 1.363 . S
C156 C159 1.363 . S
N157 C159 1.356 . S
N157 H169 0.984 . S
N157 H170 0.985 . S
N158 C160 1.356 . S
N158 H163 0.984 . S
N158 H164 0.985 . S
C159 C153 1.379 . S
C159 C156 1.363 . S
C159 N157 1.356 . S
C160 C154 1.363 . S
C160 C155 1.379 . S
C160 N158 1.356 . S
N161 C153 1.356 . S
N161 H167 0.984 . S
N161 H168 0.984 . S
N162 C155 1.356 . S
N162 H165 0.984 . S
N162 H166 0.985 . S
H163 N158 0.984 . S
H164 N158 0.985 . S
H165 N162 0.984 . S
H166 N162 0.985 . S
H167 N161 0.984 . S
H168 N161 0.984 . S
H169 N157 0.984 . S
H170 N157 0.985 . S
C171 C172 1.363 . S
C171 C177 1.379 . S
C171 N179 1.356 . S
C172 C171 1.363 . S
C172 C178 1.363 . S
C173 C174 1.363 . S
C173 C178 1.379 . S
C173 N180 1.356 . S
C174 C173 1.363 . S
C174 C177 1.363 . S
N175 C177 1.356 . S
N175 H187 0.984 . S
N175 H188 0.985 . S
N176 C178 1.356 . S
N176 H181 0.984 . S
N176 H182 0.985 . S
C177 C171 1.379 . S
C177 C174 1.363 . S
C177 N175 1.356 . S
C178 C172 1.363 . S
C178 C173 1.379 . S
C178 N176 1.356 . S
N179 C171 1.356 . S
N179 H185 0.984 . S
N179 H186 0.984 . S
N180 C173 1.356 . S
N180 H183 0.984 . S
N180 H184 0.985 . S
H181 N176 0.984 . S
H182 N176 0.985 . S
H183 N180 0.984 . S
H184 N180 0.985 . S
H185 N179 0.984 . S
H186 N179 0.984 . S
H187 N175 0.984 . S
H188 N175 0.985 . S
C189 C190 1.363 . S
C189 C195 1.379 . S
C189 N197 1.356 . S
C190 C189 1.363 . S
C190 C196 1.363 . S
C191 C192 1.363 . S
C191 C196 1.379 . S
C191 N198 1.356 . S
C192 C191 1.363 . S
C192 C195 1.363 . S
N193 C195 1.356 . S
N193 H205 0.984 . S
N193 H206 0.985 . S
N194 C196 1.356 . S
N194 H199 0.984 . S
N194 H200 0.985 . S
C195 C189 1.379 . S
C195 C192 1.363 . S
C195 N193 1.356 . S
C196 C190 1.363 . S
C196 C191 1.379 . S
C196 N194 1.356 . S
N197 C189 1.356 . S
N197 H203 0.984 . S
N197 H204 0.984 . S
N198 C191 1.356 . S
N198 H201 0.984 . S
N198 H202 0.985 . S
H199 N194 0.984 . S
H200 N194 0.985 . S
H201 N198 0.984 . S
H202 N198 0.985 . S
H203 N197 0.984 . S
H204 N197 0.984 . S
H205 N193 0.984 . S
H206 N193 0.985 . S
C64 C23 1.268 . S
C66 C34 1.268 . S
C82 C24 1.467 . S
C84 C56 1.482 . S
C100 C8 1.534 . S
C102 C43 1.510 . S
C118 C22 1.559 . S
C120 C33 1.551 . S
C136 C17 1.467 . S
C138 C32 1.484 . S
C156 C50 1.510 . S
C154 C27 1.533 . S
C172 C30 1.559 . S
C174 C59 1.553 . S
C192 C42 1.270 . S
C190 C31 1.270 . S
