# Generated by pormake.
# Topology pth, (4,4)-cn, num edge types: 1
# Building blocks:
#     Node 0, Type 0, BuildingBlock: GALJAG_clean_sbu_0, # of connection points: 4
#     Node 1, Type 0, BuildingBlock: GALJAG_clean_sbu_0, # of connection points: 4
#     Node 2, Type 0, BuildingBlock: GALJAG_clean_sbu_0, # of connection points: 4
#     Node 3, Type 1, BuildingBlock: MUDLON_clean_sbu_0, # of connection points: 4
#     Node 4, Type 1, BuildingBlock: MUDLON_clean_sbu_0, # of connection points: 4
#     Node 5, Type 1, BuildingBlock: MUDLON_clean_sbu_0, # of connection points: 4
#     Edge 6, Type (0, 1), BuildingBlock: AJUNOK_clean_linker_0, # of connection points: 2
#     Edge 7, Type (0, 1), BuildingBlock: AJUNOK_clean_linker_0, # of connection points: 2
#     Edge 8, Type (0, 1), BuildingBlock: AJUNOK_clean_linker_0, # of connection points: 2
#     Edge 9, Type (0, 1), BuildingBlock: AJUNOK_clean_linker_0, # of connection points: 2
#     Edge 10, Type (0, 1), BuildingBlock: AJUNOK_clean_linker_0, # of connection points: 2
#     Edge 11, Type (0, 1), BuildingBlock: AJUNOK_clean_linker_0, # of connection points: 2
#     Edge 12, Type (0, 1), BuildingBlock: AJUNOK_clean_linker_0, # of connection points: 2
#     Edge 13, Type (0, 1), BuildingBlock: AJUNOK_clean_linker_0, # of connection points: 2
#     Edge 14, Type (0, 1), BuildingBlock: AJUNOK_clean_linker_0, # of connection points: 2
#     Edge 15, Type (0, 1), BuildingBlock: AJUNOK_clean_linker_0, # of connection points: 2
#     Edge 16, Type (0, 1), BuildingBlock: AJUNOK_clean_linker_0, # of connection points: 2
#     Edge 17, Type (0, 1), BuildingBlock: AJUNOK_clean_linker_0, # of connection points: 2
# Relax obj value: 0.043
# Max RMSD: 0.088
# Mean RMSD: 0.080
data_MOF--net-pth--node1-GALJAG_clean_sbu_0--node2-MUDLON_clean_sbu_0--edge1-AJUNOK_clean_linker_0
_symmetry_space_group_name_H-M    P1
_symmetry_Int_Tables_number       1
_symmetry_cell_setting            triclinic
loop_
_symmetry_equiv_pos_as_xyz
'x, y, z'
_cell_length_a     17.034862
_cell_length_b     17.06144
_cell_length_c     42.849067
_cell_angle_alpha  90.097931
_cell_angle_beta   90.285361
_cell_angle_gamma 120.08879
loop_
_atom_site_label
_atom_site_type_symbol
_atom_site_fract_x
_atom_site_fract_y
_atom_site_fract_z
_atom_type_partial_charge
In0 In 0.03961 0.03515 0.11172 0.0
O1 O 0.94931 0.03886 0.15008 0.0
O2 O 0.02378 0.15801 0.12346 0.0
C3 C 0.89286 0.91729 0.0774 0.0
C4 C 0.19037 0.14543 0.07818 0.0
C5 C 0.09897 0.95118 0.15113 0.0
O6 O 0.93236 1.00175 0.07308 0.0
O7 O 0.92786 0.89349 0.09864 0.0
O8 O 0.08635 0.93269 0.12236 0.0
O9 O 0.08473 0.01374 0.15949 0.0
C10 C 0.9698 0.11992 0.14578 0.0
O11 O 0.18102 0.1589 0.10649 0.0
O12 O 0.12362 0.07562 0.06667 0.0
In13 In 1.00189 1.01067 0.44097 0.0
O14 O 0.06962 0.10653 0.39982 0.0
O15 O 1.00598 0.1454 0.43386 0.0
C16 C 0.13899 0.05588 0.48232 0.0
C17 C 0.84314 0.96037 0.47075 0.0
C18 C 0.97771 0.86394 0.40778 0.0
O19 O 0.15372 0.08629 0.45479 0.0
O20 O 0.0565 1.00318 0.48838 0.0
O21 O 0.02162 0.88918 0.43303 0.0
O22 O 0.94435 0.9118 0.3994 0.0
C23 C 0.04837 0.16406 0.40842 0.0
O24 O 0.84748 0.95494 0.4415 0.0
O25 O 0.91817 0.99071 0.48463 0.0
In26 In 0.03535 0.02689 0.76906 0.0
O27 O 0.98176 0.90003 0.79995 0.0
O28 O 0.90868 0.96996 0.79926 0.0
C29 C 0.14051 0.9887 0.73244 0.0
C30 C 0.94364 0.05381 0.72221 0.0
C31 C 0.15641 0.16012 0.80727 0.0
O32 O 0.06989 0.92762 0.74546 0.0
O33 O 0.15759 0.06858 0.73791 0.0
O34 O 0.08916 0.16238 0.79583 0.0
O35 O 0.16083 0.09098 0.79986 0.0
C36 C 0.91455 0.90428 0.80988 0.0
O37 O 0.98845 0.11421 0.74238 0.0
O38 O 0.94434 0.98103 0.72615 0.0
Mg39 Mg 0.02716 0.52242 0.2709 0.0
C40 C 0.03797 0.42566 0.32582 0.0
O41 O 0.96141 0.42575 0.32907 0.0
C42 C 0.06728 0.67868 0.23516 0.0
O43 O 0.98119 0.63901 0.24269 0.0
C44 C 0.92666 0.33707 0.24038 0.0
O45 O 0.92796 0.31168 0.26919 0.0
O46 O 0.9533 0.42004 0.2352 0.0
O47 O 0.08719 0.46494 0.30218 0.0
O48 O 0.95822 0.5705 0.30171 0.0
C49 C 1.01351 0.62157 0.32269 0.0
O50 O 0.09658 0.63524 0.32275 0.0
O51 O 0.11424 0.64363 0.24407 0.0
Mg52 Mg 0.53878 0.0432 0.60023 0.0
C53 C 0.40461 0.05847 0.566 0.0
O54 O 0.36837 0.9772 0.57813 0.0
C55 C 0.68395 0.04707 0.63407 0.0
O56 O 0.62031 0.96246 0.62949 0.0
C57 C 0.37263 0.93316 0.64667 0.0
O58 O 0.34389 0.85934 0.62977 0.0
O59 O 0.44587 1.00436 0.63938 0.0
O60 O 0.4891 0.11297 0.57022 0.0
O61 O 0.5495 0.94436 0.57074 0.0
C62 C 0.55365 0.95494 0.54127 0.0
O63 O 0.52854 1.00956 0.5291 0.0
O64 O 0.67096 0.10971 0.62371 0.0
Mg65 Mg 0.52774 0.53495 0.94299 0.0
C66 C 0.4227 0.41964 0.89466 0.0
O67 O 0.49019 0.40678 0.90231 0.0
C68 C 0.63603 0.6523 0.99101 0.0
O69 O 0.65844 0.59006 0.98594 0.0
C70 C 0.45127 0.42454 0.99867 0.0
O71 O 0.44412 0.49677 1.00326 0.0
O72 O 0.48952 0.41925 0.9739 0.0
O73 O 0.41436 0.47934 0.9099 0.0
O74 O 0.64376 0.59062 0.91169 0.0
C75 C 0.64309 0.65602 0.89758 0.0
O76 O 0.57703 0.67211 0.90394 0.0
O77 O 0.57285 0.65086 0.9745 0.0
C78 C 0.97151 0.26155 0.1625 0.0
C79 C 0.94215 0.16947 0.16755 0.0
C80 C 0.95966 0.31394 0.18526 0.0
C81 C 0.91875 0.27647 0.2141 0.0
H82 H 1.00771 0.29466 0.14142 0.0
H83 H 0.98792 0.3856 0.18088 0.0
S84 S 0.81754 0.03535 0.23695 0.0
N85 N 0.86046 0.04047 0.20206 0.0
N86 N 0.83916 0.13907 0.24484 0.0
C87 C 0.88316 0.18299 0.21848 0.0
C88 C 0.89462 0.12948 0.19521 0.0
C89 C 0.75769 0.93443 0.52042 0.0
C90 C 0.75933 0.94032 0.48763 0.0
C91 C 0.68589 0.93014 0.53763 0.0
C92 C 0.61355 0.93303 0.52274 0.0
H93 H 0.81424 0.93708 0.53305 0.0
H94 H 0.69068 0.9312 0.56286 0.0
S95 S 0.57875 0.93453 0.43724 0.0
N96 N 0.67683 0.93757 0.44077 0.0
N97 N 0.54265 0.93132 0.47318 0.0
C98 C 0.61101 0.93204 0.4899 0.0
C99 C 0.68369 0.93524 0.47233 0.0
C100 C 0.77482 0.84966 0.84155 0.0
C101 C 0.84743 0.83847 0.83212 0.0
C102 C 0.70986 0.78996 0.86249 0.0
C103 C 0.71423 0.71601 0.87514 0.0
H104 H 0.76779 0.90531 0.83271 0.0
H105 H 0.65577 0.80267 0.86884 0.0
S106 S 0.89061 0.65558 0.85783 0.0
N107 N 0.92007 0.74721 0.83682 0.0
N108 N 0.79738 0.63455 0.87644 0.0
C109 C 0.78639 0.70352 0.86591 0.0
C110 C 0.85302 0.76475 0.84438 0.0
C111 C 0.12527 0.82233 0.16335 0.0
C112 C 0.11474 0.89486 0.17388 0.0
C113 C 0.12021 0.75631 0.18414 0.0
C114 C 0.10427 0.76082 0.21602 0.0
H115 H 0.13176 0.81327 0.13865 0.0
H116 H 0.12135 0.69779 0.17484 0.0
S117 S 0.08377 0.94189 0.25623 0.0
N118 N 0.09814 0.97192 0.21916 0.0
N119 N 0.08647 0.84658 0.25774 0.0
C120 C 0.10057 0.83613 0.22719 0.0
C121 C 0.10663 0.90373 0.20623 0.0
C122 C 0.30218 0.10816 0.49559 0.0
C123 C 0.2118 0.07407 0.50526 0.0
C124 C 0.3683 0.11117 0.51623 0.0
C125 C 0.34568 0.08026 0.54706 0.0
H126 H 0.32074 0.12772 0.47153 0.0
H127 H 0.43535 0.13162 0.50743 0.0
S128 S 0.12368 0.99969 0.58536 0.0
N129 N 0.1072 0.02032 0.54901 0.0
N130 N 0.23073 0.02524 0.58733 0.0
C131 C 0.25777 0.05287 0.55757 0.0
C132 C 0.19093 0.04998 0.53678 0.0
C133 C 0.20536 0.2869 0.84646 0.0
C134 C 0.22615 0.23249 0.82739 0.0
C135 C 0.26996 0.35014 0.86756 0.0
C136 C 0.35754 0.36138 0.87002 0.0
H137 H 0.1379 0.2783 0.84588 0.0
H138 H 0.25023 0.38814 0.88269 0.0
S139 S 0.44927 0.24492 0.82148 0.0
N140 N 0.34276 0.20058 0.81002 0.0
N141 N 0.46401 0.31946 0.84878 0.0
C142 C 0.38019 0.31078 0.84966 0.0
C143 C 0.31455 0.24631 0.82859 0.0
C144 C 0.85894 0.12625 0.69929 0.0
C145 C 0.89054 0.06433 0.69668 0.0
C146 C 0.7969 0.12628 0.67739 0.0
C147 C 0.7651 0.06455 0.65228 0.0
H148 H 0.87823 0.17138 0.71924 0.0
H149 H 0.76934 0.17052 0.68128 0.0
S150 S 0.84043 0.90141 0.63171 0.0
N151 N 0.89501 0.94907 0.6645 0.0
N152 N 0.77899 0.94907 0.62374 0.0
C153 C 0.80186 1.00771 0.64816 0.0
C154 C 0.86447 1.00759 0.67027 0.0
C155 C 0.79002 0.87764 0.03046 0.0
C156 C 0.81571 0.85051 0.05793 0.0
C157 C 0.72552 0.81336 1.00964 0.0
C158 C 0.6852 0.72019 1.01568 0.0
H159 H 0.82294 0.94861 0.02425 0.0
H160 H 0.71158 0.83638 0.98787 0.0
S161 S 0.71776 0.61431 0.08633 0.0
N162 N 0.78668 0.72401 0.09159 0.0
N163 N 0.66734 0.6043 0.05238 0.0
C164 C 0.70567 0.69273 0.04395 0.0
C165 C 0.77044 0.75761 0.06513 0.0
C166 C 0.93535 0.77423 0.35789 0.0
C167 C 0.9737 0.79038 0.38811 0.0
C168 C 0.94258 0.71412 0.33721 0.0
C169 C 0.98898 0.66894 0.34608 0.0
H170 H 0.90297 0.81114 0.34962 0.0
H171 H 0.91656 0.70722 0.31363 0.0
S172 S 0.08967 0.67698 0.42374 0.0
N173 N 0.05059 0.74777 0.42679 0.0
N174 N 0.06509 0.63634 0.38782 0.0
C175 C 0.02254 0.68011 0.37673 0.0
C176 C 1.0146 0.7404 0.39781 0.0
C177 C 0.28666 0.03991 0.705 0.0
C178 C 0.19926 0.96939 0.71225 0.0
C179 C 0.34297 0.02595 0.6849 0.0
C180 C 0.31415 0.94097 0.67077 0.0
H181 H 0.31184 0.10706 0.71472 0.0
H182 H 0.40905 0.08352 0.67985 0.0
S183 S 0.09186 0.73256 0.68315 0.0
N184 N 0.08714 0.81023 0.70482 0.0
N185 N 0.19266 0.78401 0.66656 0.0
C186 C 0.22751 0.86898 0.67845 0.0
C187 C 0.17021 0.88318 0.69928 0.0
C188 C 0.27335 0.19429 0.02724 0.0
C189 C 0.26899 0.21074 0.05929 0.0
C190 C 0.33898 0.2613 1.00786 0.0
C191 C 0.40175 0.34711 0.01987 0.0
H192 H 0.22304 0.13087 1.01672 0.0
H193 H 0.3362 0.24813 0.98301 0.0
S194 S 0.42856 0.42029 0.1026 0.0
N195 N 0.34117 0.31598 0.1026 0.0
N196 N 0.4624 0.44184 0.066 0.0
C197 C 0.40231 0.36211 0.0521 0.0
C198 C 0.3365 0.29391 0.07188 0.0
C199 C 0.02525 0.29495 0.39833 0.0
C200 C 0.06206 0.24132 0.38872 0.0
C201 C 0.02317 0.35856 0.37831 0.0
C202 C 0.05858 0.37189 0.34795 0.0
H203 H 0.99383 0.28494 0.42101 0.0
H204 H 0.99033 0.39524 0.38631 0.0
S205 S 0.1714 0.25605 0.31247 0.0
N206 N 0.14172 0.21118 0.34759 0.0
N207 N 0.13807 0.33159 0.31001 0.0
C208 C 0.10116 0.32337 0.3387 0.0
C209 C 0.10273 0.25777 0.35906 0.0
loop_
_geom_bond_atom_site_label_1
_geom_bond_atom_site_label_2
_geom_bond_distance
_geom_bond_site_symmetry_2
_ccdc_geom_bond_type
In0 O1 2.294 1_455 S
In0 O2 2.326 . S
In0 O6 2.266 1_445 S
In0 O7 2.326 1_445 S
In0 O8 2.266 1_545 S
In0 O9 2.326 1_445 S
In0 O11 2.294 . S
In0 O12 2.326 . S
O1 In0 2.294 1_655 S
O1 C10 1.240 1_655 S
O2 In0 2.326 . S
O2 C10 1.252 . S
C3 O6 1.252 . S
C3 O7 1.260 . S
C4 O11 1.240 . S
C4 O12 1.252 . S
C5 O8 1.252 . S
C5 O9 1.260 1_455 S
O6 In0 2.266 1_665 S
O6 C3 1.252 . S
O7 In0 2.326 1_665 S
O7 C3 1.260 . S
O8 In0 2.266 1_565 S
O8 C5 1.252 . S
O9 In0 2.326 1_665 S
O9 C5 1.260 1_655 S
C10 O1 1.240 1_455 S
C10 O2 1.252 . S
O11 In0 2.294 . S
O11 C4 1.240 . S
O12 In0 2.326 . S
O12 C4 1.252 . S
In13 O14 2.294 . S
In13 O15 2.326 1_455 S
In13 O19 2.266 . S
In13 O20 2.326 1_545 S
In13 O21 2.266 1_445 S
In13 O22 2.326 1_545 S
In13 O24 2.294 1_445 S
In13 O25 2.326 1_455 S
O14 In13 2.294 . S
O14 C23 1.240 . S
O15 In13 2.326 1_655 S
O15 C23 1.252 1_655 S
C16 O19 1.252 . S
C16 O20 1.260 1_545 S
C17 O24 1.240 1_545 S
C17 O25 1.252 . S
C18 O21 1.252 1_455 S
C18 O22 1.260 . S
O19 In13 2.266 . S
O19 C16 1.252 . S
O20 In13 2.326 1_565 S
O20 C16 1.260 1_565 S
O21 In13 2.266 1_665 S
O21 C18 1.252 1_655 S
O22 In13 2.326 1_565 S
O22 C18 1.260 . S
C23 O14 1.240 . S
C23 O15 1.252 1_455 S
O24 In13 2.294 1_665 S
O24 C17 1.240 1_565 S
O25 In13 2.326 1_655 S
O25 C17 1.252 . S
In26 O27 2.294 1_445 S
In26 O28 2.326 1_445 S
In26 O32 2.266 1_545 S
In26 O33 2.326 . S
In26 O34 2.266 . S
In26 O35 2.326 . S
In26 O37 2.294 1_455 S
In26 O38 2.326 1_445 S
O27 In26 2.294 1_665 S
O27 C36 1.240 . S
O28 In26 2.326 1_665 S
O28 C36 1.252 . S
C29 O32 1.252 1_545 S
C29 O33 1.260 . S
C30 O37 1.240 . S
C30 O38 1.252 1_545 S
C31 O34 1.252 . S
C31 O35 1.260 . S
O32 In26 2.266 1_565 S
O32 C29 1.252 1_565 S
O33 In26 2.326 . S
O33 C29 1.260 . S
O34 In26 2.266 . S
O34 C31 1.252 . S
O35 In26 2.326 . S
O35 C31 1.260 . S
C36 O27 1.240 . S
C36 O28 1.252 . S
O37 In26 2.294 1_655 S
O37 C30 1.240 . S
O38 In26 2.326 1_665 S
O38 C30 1.252 1_565 S
Mg39 O46 2.141 . S
Mg39 O47 2.048 . S
Mg39 O48 2.048 . S
Mg39 O51 2.141 . S
C40 O41 1.313 1_455 S
C40 O47 1.195 . S
O41 C40 1.313 1_655 S
C42 O43 1.241 1_455 S
C42 O51 1.294 . S
O43 C42 1.241 1_655 S
C44 O45 1.241 1_455 S
C44 O46 1.291 . S
O45 C44 1.241 1_655 S
O46 Mg39 2.141 . S
O46 C44 1.291 . S
O47 Mg39 2.048 . S
O47 C40 1.195 . S
O48 Mg39 2.048 . S
O48 C49 1.195 . S
C49 O48 1.195 . S
C49 O50 1.313 1_455 S
O50 C49 1.313 1_655 S
O51 Mg39 2.141 . S
O51 C42 1.294 . S
Mg52 O59 2.141 . S
Mg52 O60 2.048 . S
Mg52 O61 2.048 . S
Mg52 O64 2.141 . S
C53 O54 1.313 1_545 S
C53 O60 1.195 . S
O54 C53 1.313 1_565 S
C55 O56 1.238 1_545 S
C55 O64 1.297 . S
O56 C55 1.238 1_565 S
C57 O58 1.237 1_545 S
C57 O59 1.293 . S
O58 C57 1.237 1_565 S
O59 Mg52 2.141 . S
O59 C57 1.293 . S
O60 Mg52 2.048 . S
O60 C53 1.195 . S
O61 Mg52 2.048 . S
O61 C62 1.195 . S
C62 O61 1.195 . S
C62 O63 1.313 1_545 S
O63 C62 1.313 1_565 S
O64 Mg52 2.141 . S
O64 C55 1.297 . S
Mg65 O72 2.141 . S
Mg65 O73 2.048 . S
Mg65 O74 2.048 . S
Mg65 O77 2.141 . S
C66 O67 1.313 . S
C66 O73 1.195 . S
O67 C66 1.313 . S
C68 O69 1.245 . S
C68 O77 1.289 . S
O69 C68 1.245 . S
C70 O71 1.245 . S
C70 O72 1.289 . S
O71 C70 1.245 . S
O72 Mg65 2.141 . S
O72 C70 1.289 . S
O73 Mg65 2.048 . S
O73 C66 1.195 . S
O74 Mg65 2.048 . S
O74 C75 1.195 . S
C75 O74 1.195 . S
C75 O76 1.313 . S
O76 C75 1.313 . S
O77 Mg65 2.141 . S
O77 C68 1.289 . S
C78 C79 1.369 . S
C78 C80 1.419 . S
C78 H82 0.930 . S
C79 C78 1.369 . S
C79 C88 1.429 1_455 S
C80 C78 1.419 . S
C80 C81 1.363 . S
C80 H83 0.929 . S
C81 C80 1.363 . S
C81 C87 1.428 1_455 S
H82 C78 0.930 . S
H83 C80 0.929 . S
S84 N85 1.613 . S
S84 N86 1.610 . S
N85 S84 1.613 . S
N85 C88 1.350 . S
N86 S84 1.610 . S
N86 C87 1.351 . S
C87 C81 1.428 1_655 S
C87 N86 1.351 . S
C87 C88 1.434 . S
C88 C79 1.429 1_655 S
C88 N85 1.350 . S
C88 C87 1.434 . S
C89 C90 1.369 . S
C89 C91 1.419 . S
C89 H93 0.930 . S
C90 C89 1.369 . S
C90 C99 1.429 . S
C91 C89 1.419 . S
C91 C92 1.363 . S
C91 H94 0.929 . S
C92 C91 1.363 . S
C92 C98 1.428 . S
H93 C89 0.930 . S
H94 C91 0.929 . S
S95 N96 1.613 . S
S95 N97 1.610 . S
N96 S95 1.613 . S
N96 C99 1.350 . S
N97 S95 1.610 . S
N97 C98 1.351 . S
C98 C92 1.428 . S
C98 N97 1.351 . S
C98 C99 1.434 . S
C99 C90 1.429 . S
C99 N96 1.350 . S
C99 C98 1.434 . S
C100 C101 1.369 . S
C100 C102 1.419 . S
C100 H104 0.930 . S
C101 C100 1.369 . S
C101 C110 1.429 . S
C102 C100 1.419 . S
C102 C103 1.363 . S
C102 H105 0.929 . S
C103 C102 1.363 . S
C103 C109 1.428 . S
H104 C100 0.930 . S
H105 C102 0.929 . S
S106 N107 1.613 . S
S106 N108 1.610 . S
N107 S106 1.613 . S
N107 C110 1.350 . S
N108 S106 1.610 . S
N108 C109 1.351 . S
C109 C103 1.428 . S
C109 N108 1.351 . S
C109 C110 1.434 . S
C110 C101 1.429 . S
C110 N107 1.350 . S
C110 C109 1.434 . S
C111 C112 1.369 . S
C111 C113 1.419 . S
C111 H115 0.930 . S
C112 C111 1.369 . S
C112 C121 1.429 1_455 S
C113 C111 1.419 . S
C113 C114 1.363 . S
C113 H116 0.929 . S
C114 C113 1.363 . S
C114 C120 1.428 1_455 S
H115 C111 0.930 . S
H116 C113 0.929 . S
S117 N118 1.613 . S
S117 N119 1.610 . S
N118 S117 1.613 . S
N118 C121 1.350 . S
N119 S117 1.610 . S
N119 C120 1.351 . S
C120 C114 1.428 1_655 S
C120 N119 1.351 . S
C120 C121 1.434 . S
C121 C112 1.429 1_655 S
C121 N118 1.350 . S
C121 C120 1.434 . S
C122 C123 1.369 . S
C122 C124 1.419 . S
C122 H126 0.930 . S
C123 C122 1.369 . S
C123 C132 1.429 1_545 S
C124 C122 1.419 . S
C124 C125 1.363 . S
C124 H127 0.929 . S
C125 C124 1.363 . S
C125 C131 1.428 1_545 S
H126 C122 0.930 . S
H127 C124 0.929 . S
S128 N129 1.613 . S
S128 N130 1.610 . S
N129 S128 1.613 . S
N129 C132 1.350 . S
N130 S128 1.610 . S
N130 C131 1.351 . S
C131 C125 1.428 1_565 S
C131 N130 1.351 . S
C131 C132 1.434 . S
C132 C123 1.429 1_565 S
C132 N129 1.350 . S
C132 C131 1.434 . S
C133 C134 1.369 . S
C133 C135 1.419 . S
C133 H137 0.930 . S
C134 C133 1.369 . S
C134 C143 1.429 . S
C135 C133 1.419 . S
C135 C136 1.363 . S
C135 H138 0.929 . S
C136 C135 1.363 . S
C136 C142 1.428 . S
H137 C133 0.930 . S
H138 C135 0.929 . S
S139 N140 1.613 . S
S139 N141 1.610 . S
N140 S139 1.613 . S
N140 C143 1.350 . S
N141 S139 1.610 . S
N141 C142 1.351 . S
C142 C136 1.428 . S
C142 N141 1.351 . S
C142 C143 1.434 . S
C143 C134 1.429 . S
C143 N140 1.350 . S
C143 C142 1.434 . S
C144 C145 1.369 . S
C144 C146 1.419 . S
C144 H148 0.930 . S
C145 C144 1.369 . S
C145 C154 1.429 1_545 S
C146 C144 1.419 . S
C146 C147 1.363 . S
C146 H149 0.929 . S
C147 C146 1.363 . S
C147 C153 1.428 1_545 S
H148 C144 0.930 . S
H149 C146 0.929 . S
S150 N151 1.613 . S
S150 N152 1.610 . S
N151 S150 1.613 . S
N151 C154 1.350 . S
N152 S150 1.610 . S
N152 C153 1.351 . S
C153 C147 1.428 1_565 S
C153 N152 1.351 . S
C153 C154 1.434 . S
C154 C145 1.429 1_565 S
C154 N151 1.350 . S
C154 C153 1.434 . S
C155 C156 1.369 . S
C155 C157 1.419 1_554 S
C155 H159 0.930 1_554 S
C156 C155 1.369 . S
C156 C165 1.429 . S
C157 C155 1.419 1_556 S
C157 C158 1.363 . S
C157 H160 0.929 . S
C158 C157 1.363 . S
C158 C164 1.428 1_556 S
H159 C155 0.930 1_556 S
H160 C157 0.929 . S
S161 N162 1.613 . S
S161 N163 1.610 . S
N162 S161 1.613 . S
N162 C165 1.350 . S
N163 S161 1.610 . S
N163 C164 1.351 . S
C164 C158 1.428 1_554 S
C164 N163 1.351 . S
C164 C165 1.434 . S
C165 C156 1.429 . S
C165 N162 1.350 . S
C165 C164 1.434 . S
C166 C167 1.369 . S
C166 C168 1.419 . S
C166 H170 0.930 . S
C167 C166 1.369 . S
C167 C176 1.429 1_455 S
C168 C166 1.419 . S
C168 C169 1.363 . S
C168 H171 0.929 . S
C169 C168 1.363 . S
C169 C175 1.428 1_455 S
H170 C166 0.930 . S
H171 C168 0.929 . S
S172 N173 1.613 . S
S172 N174 1.610 . S
N173 S172 1.613 . S
N173 C176 1.350 . S
N174 S172 1.610 . S
N174 C175 1.351 . S
C175 C169 1.428 1_655 S
C175 N174 1.351 . S
C175 C176 1.434 . S
C176 C167 1.429 1_655 S
C176 N173 1.350 . S
C176 C175 1.434 . S
C177 C178 1.369 . S
C177 C179 1.419 . S
C177 H181 0.930 . S
C178 C177 1.369 . S
C178 C187 1.429 1_545 S
C179 C177 1.419 . S
C179 C180 1.363 . S
C179 H182 0.929 . S
C180 C179 1.363 . S
C180 C186 1.428 1_545 S
H181 C177 0.930 . S
H182 C179 0.929 . S
S183 N184 1.613 . S
S183 N185 1.610 . S
N184 S183 1.613 . S
N184 C187 1.350 . S
N185 S183 1.610 . S
N185 C186 1.351 . S
C186 C180 1.428 1_565 S
C186 N185 1.351 . S
C186 C187 1.434 . S
C187 C178 1.429 1_565 S
C187 N184 1.350 . S
C187 C186 1.434 . S
C188 C189 1.369 . S
C188 C190 1.419 1_554 S
C188 H192 0.927 1_554 S
C189 C188 1.369 . S
C189 C198 1.429 . S
C190 C188 1.419 1_556 S
C190 C191 1.363 . S
C190 H193 0.929 . S
C191 C190 1.363 . S
C191 C197 1.428 1_556 S
H192 C188 0.927 1_556 S
H193 C190 0.929 . S
S194 N195 1.613 . S
S194 N196 1.610 . S
N195 S194 1.613 . S
N195 C198 1.350 . S
N196 S194 1.610 . S
N196 C197 1.351 . S
C197 C191 1.428 1_554 S
C197 N196 1.351 . S
C197 C198 1.434 . S
C198 C189 1.429 . S
C198 N195 1.350 . S
C198 C197 1.434 . S
C199 C200 1.369 1_655 S
C199 C201 1.419 . S
C199 H203 0.930 . S
C200 C199 1.369 1_455 S
C200 C209 1.429 . S
C201 C199 1.419 . S
C201 C202 1.363 1_655 S
C201 H204 0.929 . S
C202 C201 1.363 1_455 S
C202 C208 1.428 . S
H203 C199 0.930 . S
H204 C201 0.929 . S
S205 N206 1.613 . S
S205 N207 1.610 . S
N206 S205 1.613 . S
N206 C209 1.350 . S
N207 S205 1.610 . S
N207 C208 1.351 . S
C208 C202 1.428 . S
C208 N207 1.351 . S
C208 C209 1.434 . S
C209 C200 1.429 . S
C209 N206 1.350 . S
C209 C208 1.434 . S
C81 C44 1.457 . S
C79 C10 1.463 . S
C90 C17 1.521 . S
C92 C62 1.517 . S
C101 C36 1.527 . S
C103 C75 1.522 . S
C112 C5 1.464 . S
C114 C42 1.451 . S
C125 C53 1.515 . S
C123 C16 1.522 . S
C134 C31 1.528 . S
C136 C66 1.519 . S
C147 C55 1.445 . S
C145 C30 1.460 . S
C156 C3 1.467 . S
C158 C68 1.454 . S
C169 C49 1.521 . S
C167 C18 1.525 . S
C180 C57 1.458 . S
C178 C29 1.461 . S
C191 C70 1.459 . S
C189 C4 1.466 . S
C200 C23 1.523 . S
C202 C40 1.516 . S
