# Generated by pormake.
# Topology bcu-b, (8,8)-cn, num edge types: 1
# Building blocks:
#     Node 0, Type 0, BuildingBlock: TAGTUT_clean_sbu_3, # of connection points: 8
#     Node 1, Type 1, BuildingBlock: GIZVER_clean_sbu_0, # of connection points: 8
#     Edge 2, Type (0, 1), BuildingBlock: XIVTED_clean_linker_0, # of connection points: 2
#     Edge 3, Type (0, 1), BuildingBlock: XIVTED_clean_linker_0, # of connection points: 2
#     Edge 4, Type (0, 1), BuildingBlock: XIVTED_clean_linker_0, # of connection points: 2
#     Edge 5, Type (0, 1), BuildingBlock: XIVTED_clean_linker_0, # of connection points: 2
#     Edge 6, Type (0, 1), BuildingBlock: XIVTED_clean_linker_0, # of connection points: 2
#     Edge 7, Type (0, 1), BuildingBlock: XIVTED_clean_linker_0, # of connection points: 2
#     Edge 8, Type (0, 1), BuildingBlock: XIVTED_clean_linker_0, # of connection points: 2
#     Edge 9, Type (0, 1), BuildingBlock: XIVTED_clean_linker_0, # of connection points: 2
# Relax obj value: 0.089
# Max RMSD: 0.158
# Mean RMSD: 0.156
data_MOF--net-bcu-b--node1-TAGTUT_clean_sbu_3--node2-GIZVER_clean_sbu_0--edge1-XIVTED_clean_linker_0
_symmetry_space_group_name_H-M    P1
_symmetry_Int_Tables_number       1
_symmetry_cell_setting            triclinic
loop_
_symmetry_equiv_pos_as_xyz
'x, y, z'
_cell_length_a     20.717074
_cell_length_b     22.875488
_cell_length_c     17.957333
_cell_angle_alpha  90.18651
_cell_angle_beta   90.302681
_cell_angle_gamma 108.12069
loop_
_atom_site_label
_atom_site_type_symbol
_atom_site_fract_x
_atom_site_fract_y
_atom_site_fract_z
_atom_type_partial_charge
C0 C 0.11722 0.10232 0.10115 0.0
C1 C 0.19003 0.90082 0.06002 0.0
C2 C 0.12205 0.90751 0.83826 0.0
Mg3 Mg 0.99708 0.1428 0.01356 0.0
Mg4 Mg 0.85853 0.03051 0.97269 0.0
O5 O 0.95251 0.06471 0.95734 0.0
Mg6 Mg 0.01036 0.01344 -0.01396 0.0
O7 O 0.07379 0.96715 0.01541 0.0
Mg8 Mg 0.16209 0.01967 0.97272 0.0
Mg9 Mg 0.04986 0.88546 -0.01566 0.0
C10 C 0.89178 0.92288 0.8837 0.0
O11 O 0.9282 0.94551 0.0604 0.0
O12 O 0.92841 0.18322 0.93699 0.0
O13 O 0.95069 0.85714 0.03282 0.0
O14 O 0.91574 0.12556 0.10282 0.0
O15 O 0.83707 0.10121 0.9105 0.0
O16 O 0.82691 0.04243 0.08585 0.0
O17 O 0.09739 0.07232 0.91252 0.0
O18 O 0.08152 0.16354 0.9289 0.0
C19 C 0.11504 0.13039 0.90154 0.0
C20 C 0.87084 0.15827 0.9037 0.0
O21 O 0.95636 0.94619 0.89334 0.0
O22 O 0.21272 0.95788 0.04127 0.0
O23 O 0.84776 0.94329 0.91612 0.0
O24 O 0.15976 0.9567 0.86967 0.0
O25 O 0.13025 0.86639 0.04265 0.0
O26 O 0.06708 0.87529 0.86844 0.0
O27 O 0.05579 0.08506 0.07731 0.0
O28 O 0.16247 0.08123 0.07349 0.0
C29 C 0.8588 0.08971 0.12438 0.0
C30 C 0.91439 0.88649 0.06404 0.0
Co31 Co 0.56626 0.39121 0.44576 0.0
Co32 Co 0.59884 0.45595 0.56668 0.0
Co33 Co 0.50643 0.5123 0.48139 0.0
O34 O 0.58164 0.47614 0.47134 0.0
H35 H 0.62204 0.50379 0.44924 0.0
O36 O 0.43177 0.54911 0.49085 0.0
Co37 Co 0.44598 0.63249 0.52362 0.0
Co38 Co 0.4147 0.57509 0.39781 0.0
H39 H 0.39086 0.52058 0.51084 0.0
O40 O 0.68293 0.45588 0.58864 0.0
O41 O 0.59315 0.37506 0.5502 0.0
O42 O 0.53638 0.45476 0.64691 0.0
O43 O 0.45854 0.45478 0.56259 0.0
O44 O 0.56129 0.57119 0.55557 0.0
O45 O 0.44965 0.70702 0.55661 0.0
O46 O 0.35813 0.62277 0.54605 0.0
O47 O 0.54225 0.65374 0.50846 0.0
O48 O 0.5541 0.56991 0.40002 0.0
O49 O 0.4756 0.57438 0.31782 0.0
O50 O 0.43047 0.65729 0.4202 0.0
O51 O 0.3343 0.58802 0.37596 0.0
C52 C 0.62176 0.33818 0.40312 0.0
C53 C 0.43476 0.39395 0.42413 0.0
C54 C 0.47478 0.44047 0.62691 0.0
C55 C 0.65463 0.39707 0.57873 0.0
C56 C 0.38465 0.68061 0.56459 0.0
C57 C 0.57812 0.62921 0.54803 0.0
C58 C 0.53722 0.58443 0.33589 0.0
C59 C 0.37069 0.64468 0.38884 0.0
O60 O 0.558 0.3147 0.41954 0.0
O61 O 0.65209 0.39684 0.41549 0.0
O62 O 0.45134 0.45123 0.40902 0.0
O63 O 0.47188 0.3732 0.46735 0.0
H64 H 0.112 0.21977 0.11836 0.0
H65 H 0.37539 0.27235 0.45652 0.0
H66 H 0.17063 0.07701 0.22885 0.0
H67 H 0.34776 0.41958 0.32303 0.0
H68 H 0.27698 0.20082 0.39508 0.0
H69 H 0.17385 0.29337 0.21449 0.0
C70 C 0.13605 0.20373 0.16427 0.0
C71 C 0.13712 0.14289 0.16607 0.0
C72 C 0.292 0.2489 0.37972 0.0
C73 C 0.20792 0.22577 0.27449 0.0
C74 C 0.34837 0.28975 0.41464 0.0
C75 C 0.37086 0.35173 0.39354 0.0
C76 C 0.25816 0.27001 0.32281 0.0
C77 C 0.33289 0.37191 0.34006 0.0
C78 C 0.17168 0.24558 0.21861 0.0
C79 C 0.16936 0.12393 0.22573 0.0
N80 N 0.27895 0.33094 0.30565 0.0
N81 N 0.20411 0.16536 0.27717 0.0
H82 H 0.91819 0.17775 0.2282 0.0
H83 H 0.56614 0.21977 0.3555 0.0
H84 H 0.72252 0.05623 0.15883 0.0
H85 H 0.75939 0.36164 0.37925 0.0
H86 H 0.62357 0.15157 0.30205 0.0
H87 H 0.86154 0.23504 0.30481 0.0
C88 C 0.86321 0.16211 0.23035 0.0
C89 C 0.82511 0.11228 0.1861 0.0
C90 C 0.65355 0.19747 0.31915 0.0
C91 C 0.75988 0.1787 0.2734 0.0
C92 C 0.62084 0.23669 0.34979 0.0
C93 C 0.65792 0.29698 0.37161 0.0
C94 C 0.72421 0.21816 0.31047 0.0
C95 C 0.72867 0.31585 0.36273 0.0
C96 C 0.83096 0.19534 0.27372 0.0
C97 C 0.75406 0.09419 0.19183 0.0
N98 N 0.7595 0.27659 0.33275 0.0
N99 N 0.72375 0.12786 0.23385 0.0
H100 H 0.78406 0.89397 0.07756 0.0
H101 H 0.67143 0.59466 0.33622 0.0
H102 H 0.91607 0.79202 0.15105 0.0
H103 H 0.52532 0.66793 0.23139 0.0
H104 H 0.76226 0.67174 0.27286 0.0
H105 H 0.68858 0.81837 0.14112 0.0
C106 C 0.793 0.85638 0.108 0.0
C107 C 0.85762 0.84885 0.1091 0.0
C108 C 0.71034 0.67084 0.26305 0.0
C109 C 0.74997 0.76279 0.18036 0.0
C110 C 0.65845 0.62655 0.29901 0.0
C111 C 0.59081 0.62466 0.28874 0.0
C112 C 0.69479 0.71426 0.21697 0.0
C113 C 0.57687 0.66736 0.2401 0.0
C114 C 0.73868 0.81302 0.1434 0.0
C115 C 0.86681 0.79917 0.14842 0.0
N116 N 0.62857 0.71088 0.20636 0.0
N117 N 0.81374 0.75816 0.1822 0.0
H118 H 0.29654 0.95647 0.15701 0.0
H119 H 0.24076 0.63791 0.35683 0.0
H120 H 0.17446 0.77971 0.07146 0.0
H121 H 0.44526 0.76346 0.35313 0.0
H122 H 0.20341 0.70972 0.28153 0.0
H123 H 0.34519 0.90253 0.25066 0.0
C124 C 0.28091 0.90668 0.15703 0.0
C125 C 0.23059 0.87248 0.10722 0.0
C126 C 0.25635 0.72192 0.29805 0.0
C127 C 0.28367 0.81172 0.21422 0.0
C128 C 0.27764 0.68112 0.34115 0.0
C129 C 0.34643 0.69416 0.35945 0.0
C130 C 0.30408 0.77609 0.27279 0.0
C131 C 0.39182 0.75153 0.33914 0.0
C132 C 0.30817 0.87619 0.21059 0.0
C133 C 0.21196 0.80809 0.10964 0.0
N134 N 0.37004 0.79036 0.29542 0.0
N135 N 0.2377 0.78 0.16283 0.0
H136 H 0.06646 0.79547 0.76898 0.0
H137 H 0.4234 0.80365 0.59621 0.0
H138 H 0.24328 0.95689 0.7663 0.0
H139 H 0.24769 0.64133 0.59506 0.0
H140 H 0.35385 0.86302 0.64568 0.0
H141 H 0.12626 0.74221 0.69011 0.0
C142 C 0.11725 0.82031 0.75051 0.0
C143 C 0.15013 0.88065 0.7755 0.0
C144 C 0.33023 0.81451 0.63427 0.0
C145 C 0.21937 0.81927 0.68603 0.0
C146 C 0.37007 0.78039 0.6062 0.0
C147 C 0.34161 0.7171 0.59221 0.0
C148 C 0.2612 0.78529 0.64901 0.0
C149 C 0.27196 0.68986 0.6056 0.0
C150 C 0.15158 0.78959 0.70583 0.0
C151 C 0.21596 0.91027 0.74929 0.0
N152 N 0.23428 0.72399 0.63382 0.0
N153 N 0.24866 0.87903 0.707 0.0
H154 H 0.15859 0.10836 0.76361 0.0
H155 H 0.3524 0.36597 0.57656 0.0
H156 H 0.21467 0.22789 0.95517 0.0
H157 H 0.47996 0.40609 0.77318 0.0
H158 H 0.27305 0.28049 0.64144 0.0
H159 H 0.25198 0.18005 0.6938 0.0
C160 C 0.19166 0.14889 0.79127 0.0
C161 C 0.17901 0.16298 0.86452 0.0
C162 C 0.31876 0.30752 0.67011 0.0
C163 C 0.28375 0.24509 0.78566 0.0
C164 C 0.36358 0.3572 0.63368 0.0
C165 C 0.42299 0.3936 0.66964 0.0
C166 C 0.33271 0.29444 0.74353 0.0
C167 C 0.43474 0.37938 0.74347 0.0
C168 C 0.24406 0.19012 0.75137 0.0
C169 C 0.22278 0.21607 0.89826 0.0
N170 N 0.38948 0.33124 0.7784 0.0
N171 N 0.27315 0.25549 0.85844 0.0
H172 H 0.93046 0.27601 0.85119 0.0
H173 H 0.60336 0.27356 0.60925 0.0
H174 H 0.746 0.12207 0.8374 0.0
H175 H 0.78761 0.42761 0.61986 0.0
H176 H 0.6595 0.21333 0.68294 0.0
H177 H 0.88197 0.33059 0.76023 0.0
C178 C 0.87983 0.25384 0.82948 0.0
C179 C 0.84234 0.19447 0.85228 0.0
C180 C 0.68781 0.26018 0.6685 0.0
C181 C 0.78693 0.25607 0.74775 0.0
C182 C 0.65586 0.29434 0.62597 0.0
C183 C 0.69039 0.35595 0.6097 0.0
C184 C 0.75454 0.28803 0.69479 0.0
C185 C 0.75857 0.38055 0.63244 0.0
C186 C 0.85233 0.28476 0.77716 0.0
C187 C 0.77705 0.16776 0.82167 0.0
N188 N 0.78813 0.34679 0.67458 0.0
N189 N 0.75153 0.19873 0.77122 0.0
H190 H 0.91065 0.92651 0.73423 0.0
H191 H 0.64201 0.59555 0.66561 0.0
H192 H 0.81045 0.80764 0.91249 0.0
H193 H 0.64987 0.7509 0.52581 0.0
H194 H 0.73345 0.662 0.74232 0.0
H195 H 0.84448 0.84991 0.64343 0.0
C196 C 0.8763 0.88334 0.75392 0.0
C197 C 0.86564 0.87265 0.83028 0.0
C198 C 0.71562 0.68117 0.69425 0.0
C199 C 0.79083 0.78602 0.72814 0.0
C200 C 0.66354 0.64346 0.65038 0.0
C201 C 0.63763 0.66805 0.58982 0.0
C202 C 0.74282 0.7436 0.67672 0.0
C203 C 0.66776 0.73037 0.57263 0.0
C204 C 0.83836 0.84021 0.70244 0.0
C205 C 0.81989 0.81696 0.85376 0.0
N206 N 0.71881 0.76624 0.61616 0.0
N207 N 0.7839 0.77554 0.80273 0.0
loop_
_geom_bond_atom_site_label_1
_geom_bond_atom_site_label_2
_geom_bond_distance
_geom_bond_site_symmetry_2
_ccdc_geom_bond_type
C0 O27 1.312 . S
C0 O28 1.208 . S
C1 O22 1.331 . S
C1 O25 1.244 . S
C2 O24 1.264 . S
C2 O26 1.273 . S
Mg3 O5 1.936 . S
Mg3 O12 2.081 . S
Mg3 O14 2.023 1_556 S
Mg3 O18 2.031 1_655 S
Mg3 O27 2.291 1_656 S
Mg4 O5 1.963 . S
Mg4 O15 1.942 . S
Mg4 O16 1.955 1_556 S
Mg4 O23 1.986 1_545 S
O5 Mg3 1.936 . S
O5 Mg4 1.963 . S
O5 Mg6 1.913 1_556 S
Mg6 O5 1.913 1_554 S
Mg6 O7 1.917 1_645 S
Mg6 O11 2.019 1_545 S
Mg6 O17 2.109 1_654 S
Mg6 O21 2.006 1_544 S
Mg6 O27 2.119 1_655 S
O7 Mg6 1.917 1_465 S
O7 Mg8 1.936 1_565 S
O7 Mg9 1.963 . S
Mg8 O7 1.936 1_545 S
Mg8 O17 2.291 1_554 S
Mg8 O22 2.081 1_545 S
Mg8 O24 2.023 1_544 S
Mg8 O28 2.031 . S
Mg9 O7 1.963 . S
Mg9 O13 1.986 1_455 S
Mg9 O25 1.942 . S
Mg9 O26 1.955 1_554 S
C10 O21 1.191 . S
C10 O23 1.307 . S
O11 Mg6 2.019 1_565 S
O11 C30 1.191 . S
O12 Mg3 2.081 . S
O12 C20 1.331 . S
O13 Mg9 1.986 1_655 S
O13 C30 1.307 . S
O14 Mg3 2.023 1_554 S
O14 C29 1.264 . S
O15 Mg4 1.942 . S
O15 C20 1.244 . S
O16 Mg4 1.955 1_554 S
O16 C29 1.273 . S
O17 Mg6 2.109 1_456 S
O17 Mg8 2.291 1_556 S
O17 C19 1.312 . S
O18 Mg3 2.031 1_455 S
O18 C19 1.208 . S
C19 O17 1.312 . S
C19 O18 1.208 . S
C20 O12 1.331 . S
C20 O15 1.244 . S
O21 Mg6 2.006 1_566 S
O21 C10 1.191 . S
O22 C1 1.331 . S
O22 Mg8 2.081 1_565 S
O23 Mg4 1.986 1_565 S
O23 C10 1.307 . S
O24 C2 1.264 . S
O24 Mg8 2.023 1_566 S
O25 C1 1.244 . S
O25 Mg9 1.942 . S
O26 C2 1.273 . S
O26 Mg9 1.955 1_556 S
O27 C0 1.312 . S
O27 Mg3 2.291 1_454 S
O27 Mg6 2.119 1_455 S
O28 C0 1.208 . S
O28 Mg8 2.031 . S
C29 O14 1.264 . S
C29 O16 1.273 . S
C30 O11 1.191 . S
C30 O13 1.307 . S
Co31 O34 2.042 . S
Co31 O41 2.264 . S
Co31 O60 2.286 . S
Co31 O61 2.069 . S
Co31 O63 2.015 . S
Co32 O34 2.122 . S
Co32 O40 2.073 . S
Co32 O41 2.327 . S
Co32 O42 1.976 . S
Co33 O34 2.087 . S
Co33 O36 2.087 . S
Co33 O43 2.111 . S
Co33 O44 2.143 . S
Co33 O48 2.111 . S
Co33 O62 2.143 . S
O34 Co31 2.042 . S
O34 Co32 2.122 . S
O34 Co33 2.087 . S
O34 H35 0.980 . S
H35 O34 0.980 . S
O36 Co33 2.087 . S
O36 Co37 2.042 . S
O36 Co38 2.122 . S
O36 H39 0.980 . S
Co37 O36 2.042 . S
Co37 O45 2.286 . S
Co37 O46 2.069 . S
Co37 O47 2.015 . S
Co37 O50 2.264 . S
Co38 O36 2.122 . S
Co38 O49 1.976 . S
Co38 O50 2.327 . S
Co38 O51 2.073 . S
H39 O36 0.980 . S
O40 Co32 2.073 . S
O40 C55 1.245 . S
O41 Co31 2.264 . S
O41 Co32 2.327 . S
O41 C55 1.257 . S
O42 Co32 1.976 . S
O42 C54 1.251 . S
O43 Co33 2.111 . S
O43 C54 1.274 . S
O44 Co33 2.143 . S
O44 C57 1.246 . S
O45 Co37 2.286 . S
O45 C56 1.259 . S
O46 Co37 2.069 . S
O46 C56 1.289 . S
O47 Co37 2.015 . S
O47 C57 1.257 . S
O48 Co33 2.111 . S
O48 C58 1.274 . S
O49 Co38 1.976 . S
O49 C58 1.251 . S
O50 Co37 2.264 . S
O50 Co38 2.327 . S
O50 C59 1.257 . S
O51 Co38 2.073 . S
O51 C59 1.245 . S
C52 O60 1.259 . S
C52 O61 1.289 . S
C53 O62 1.246 . S
C53 O63 1.257 . S
C54 O42 1.251 . S
C54 O43 1.274 . S
C55 O40 1.245 . S
C55 O41 1.257 . S
C56 O45 1.259 . S
C56 O46 1.289 . S
C57 O44 1.246 . S
C57 O47 1.257 . S
C58 O48 1.274 . S
C58 O49 1.251 . S
C59 O50 1.257 . S
C59 O51 1.245 . S
O60 Co31 2.286 . S
O60 C52 1.259 . S
O61 Co31 2.069 . S
O61 C52 1.289 . S
O62 Co33 2.143 . S
O62 C53 1.246 . S
O63 Co31 2.015 . S
O63 C53 1.257 . S
H64 C70 0.930 . S
H65 C74 0.930 . S
H66 C79 0.929 . S
H67 C77 0.929 . S
H68 C72 0.929 . S
H69 C78 0.929 . S
C70 H64 0.930 . S
C70 C71 1.367 . S
C70 C78 1.378 . S
C71 C70 1.367 . S
C71 C79 1.433 . S
C72 H68 0.929 . S
C72 C74 1.378 . S
C72 C76 1.350 . S
C73 C76 1.463 . S
C73 C78 1.350 . S
C73 N81 1.427 . S
C74 H65 0.930 . S
C74 C72 1.378 . S
C74 C75 1.367 . S
C75 C74 1.367 . S
C75 C77 1.433 . S
C76 C72 1.350 . S
C76 C73 1.463 . S
C76 N80 1.427 . S
C77 H67 0.929 . S
C77 C75 1.433 . S
C77 N80 1.384 . S
C78 H69 0.929 . S
C78 C70 1.378 . S
C78 C73 1.350 . S
C79 H66 0.929 . S
C79 C71 1.433 . S
C79 N81 1.384 . S
N80 C76 1.427 . S
N80 C77 1.384 . S
N81 C73 1.427 . S
N81 C79 1.384 . S
H82 C88 0.930 . S
H83 C92 0.930 . S
H84 C97 0.929 . S
H85 C95 0.929 . S
H86 C90 0.929 . S
H87 C96 0.929 . S
C88 H82 0.930 . S
C88 C89 1.367 . S
C88 C96 1.378 . S
C89 C88 1.367 . S
C89 C97 1.433 . S
C90 H86 0.929 . S
C90 C92 1.378 . S
C90 C94 1.350 . S
C91 C94 1.463 . S
C91 C96 1.350 . S
C91 N99 1.427 . S
C92 H83 0.930 . S
C92 C90 1.378 . S
C92 C93 1.367 . S
C93 C92 1.367 . S
C93 C95 1.433 . S
C94 C90 1.350 . S
C94 C91 1.463 . S
C94 N98 1.427 . S
C95 H85 0.929 . S
C95 C93 1.433 . S
C95 N98 1.384 . S
C96 H87 0.929 . S
C96 C88 1.378 . S
C96 C91 1.350 . S
C97 H84 0.929 . S
C97 C89 1.433 . S
C97 N99 1.384 . S
N98 C94 1.427 . S
N98 C95 1.384 . S
N99 C91 1.427 . S
N99 C97 1.384 . S
H100 C106 0.930 . S
H101 C110 0.930 . S
H102 C115 0.929 . S
H103 C113 0.929 . S
H104 C108 0.929 . S
H105 C114 0.929 . S
C106 H100 0.930 . S
C106 C107 1.367 . S
C106 C114 1.378 . S
C107 C106 1.367 . S
C107 C115 1.433 . S
C108 H104 0.929 . S
C108 C110 1.378 . S
C108 C112 1.350 . S
C109 C112 1.463 . S
C109 C114 1.350 . S
C109 N117 1.427 . S
C110 H101 0.930 . S
C110 C108 1.378 . S
C110 C111 1.367 . S
C111 C110 1.367 . S
C111 C113 1.433 . S
C112 C108 1.350 . S
C112 C109 1.463 . S
C112 N116 1.427 . S
C113 H103 0.929 . S
C113 C111 1.433 . S
C113 N116 1.384 . S
C114 H105 0.929 . S
C114 C106 1.378 . S
C114 C109 1.350 . S
C115 H102 0.929 . S
C115 C107 1.433 . S
C115 N117 1.384 . S
N116 C112 1.427 . S
N116 C113 1.384 . S
N117 C109 1.427 . S
N117 C115 1.384 . S
H118 C124 0.930 . S
H119 C128 0.930 . S
H120 C133 0.929 . S
H121 C131 0.929 . S
H122 C126 0.929 . S
H123 C132 0.929 . S
C124 H118 0.930 . S
C124 C125 1.367 . S
C124 C132 1.378 . S
C125 C124 1.367 . S
C125 C133 1.433 . S
C126 H122 0.929 . S
C126 C128 1.378 . S
C126 C130 1.350 . S
C127 C130 1.463 . S
C127 C132 1.350 . S
C127 N135 1.427 . S
C128 H119 0.930 . S
C128 C126 1.378 . S
C128 C129 1.367 . S
C129 C128 1.367 . S
C129 C131 1.433 . S
C130 C126 1.350 . S
C130 C127 1.463 . S
C130 N134 1.427 . S
C131 H121 0.929 . S
C131 C129 1.433 . S
C131 N134 1.384 . S
C132 H123 0.929 . S
C132 C124 1.378 . S
C132 C127 1.350 . S
C133 H120 0.929 . S
C133 C125 1.433 . S
C133 N135 1.384 . S
N134 C130 1.427 . S
N134 C131 1.384 . S
N135 C127 1.427 . S
N135 C133 1.384 . S
H136 C142 0.930 . S
H137 C146 0.930 . S
H138 C151 0.929 . S
H139 C149 0.929 . S
H140 C144 0.929 . S
H141 C150 0.929 . S
C142 H136 0.930 . S
C142 C143 1.367 . S
C142 C150 1.378 . S
C143 C142 1.367 . S
C143 C151 1.433 . S
C144 H140 0.929 . S
C144 C146 1.378 . S
C144 C148 1.350 . S
C145 C148 1.463 . S
C145 C150 1.350 . S
C145 N153 1.427 . S
C146 H137 0.930 . S
C146 C144 1.378 . S
C146 C147 1.367 . S
C147 C146 1.367 . S
C147 C149 1.433 . S
C148 C144 1.350 . S
C148 C145 1.463 . S
C148 N152 1.427 . S
C149 H139 0.929 . S
C149 C147 1.433 . S
C149 N152 1.384 . S
C150 H141 0.929 . S
C150 C142 1.378 . S
C150 C145 1.350 . S
C151 H138 0.929 . S
C151 C143 1.433 . S
C151 N153 1.384 . S
N152 C148 1.427 . S
N152 C149 1.384 . S
N153 C145 1.427 . S
N153 C151 1.384 . S
H154 C160 0.930 . S
H155 C164 0.930 . S
H156 C169 0.929 . S
H157 C167 0.929 . S
H158 C162 0.929 . S
H159 C168 0.929 . S
C160 H154 0.930 . S
C160 C161 1.367 . S
C160 C168 1.378 . S
C161 C160 1.367 . S
C161 C169 1.433 . S
C162 H158 0.929 . S
C162 C164 1.378 . S
C162 C166 1.350 . S
C163 C166 1.463 . S
C163 C168 1.350 . S
C163 N171 1.427 . S
C164 H155 0.930 . S
C164 C162 1.378 . S
C164 C165 1.367 . S
C165 C164 1.367 . S
C165 C167 1.433 . S
C166 C162 1.350 . S
C166 C163 1.463 . S
C166 N170 1.427 . S
C167 H157 0.929 . S
C167 C165 1.433 . S
C167 N170 1.384 . S
C168 H159 0.929 . S
C168 C160 1.378 . S
C168 C163 1.350 . S
C169 H156 0.929 . S
C169 C161 1.433 . S
C169 N171 1.384 . S
N170 C166 1.427 . S
N170 C167 1.384 . S
N171 C163 1.427 . S
N171 C169 1.384 . S
H172 C178 0.930 . S
H173 C182 0.930 . S
H174 C187 0.929 . S
H175 C185 0.929 . S
H176 C180 0.929 . S
H177 C186 0.929 . S
C178 H172 0.930 . S
C178 C179 1.367 . S
C178 C186 1.378 . S
C179 C178 1.367 . S
C179 C187 1.433 . S
C180 H176 0.929 . S
C180 C182 1.378 . S
C180 C184 1.350 . S
C181 C184 1.463 . S
C181 C186 1.350 . S
C181 N189 1.427 . S
C182 H173 0.930 . S
C182 C180 1.378 . S
C182 C183 1.367 . S
C183 C182 1.367 . S
C183 C185 1.433 . S
C184 C180 1.350 . S
C184 C181 1.463 . S
C184 N188 1.427 . S
C185 H175 0.929 . S
C185 C183 1.433 . S
C185 N188 1.384 . S
C186 H177 0.929 . S
C186 C178 1.378 . S
C186 C181 1.350 . S
C187 H174 0.929 . S
C187 C179 1.433 . S
C187 N189 1.384 . S
N188 C184 1.427 . S
N188 C185 1.384 . S
N189 C181 1.427 . S
N189 C187 1.384 . S
H190 C196 0.930 . S
H191 C200 0.930 . S
H192 C205 0.929 . S
H193 C203 0.929 . S
H194 C198 0.929 . S
H195 C204 0.929 . S
C196 H190 0.930 . S
C196 C197 1.367 . S
C196 C204 1.378 . S
C197 C196 1.367 . S
C197 C205 1.433 . S
C198 H194 0.929 . S
C198 C200 1.378 . S
C198 C202 1.350 . S
C199 C202 1.463 . S
C199 C204 1.350 . S
C199 N207 1.427 . S
C200 H191 0.930 . S
C200 C198 1.378 . S
C200 C201 1.367 . S
C201 C200 1.367 . S
C201 C203 1.433 . S
C202 C198 1.350 . S
C202 C199 1.463 . S
C202 N206 1.427 . S
C203 H193 0.929 . S
C203 C201 1.433 . S
C203 N206 1.384 . S
C204 H195 0.929 . S
C204 C196 1.378 . S
C204 C199 1.350 . S
C205 H192 0.929 . S
C205 C197 1.433 . S
C205 N207 1.384 . S
N206 C202 1.427 . S
N206 C203 1.384 . S
N207 C199 1.427 . S
N207 C205 1.384 . S
C71 C0 1.358 . S
C75 C53 1.365 . S
C89 C29 1.720 . S
C93 C52 1.747 . S
C107 C30 1.322 . S
C111 C58 1.262 . S
C125 C1 1.531 . S
C129 C59 1.475 . S
C143 C2 1.710 . S
C147 C56 1.746 . S
C165 C54 1.305 . S
C161 C19 1.342 . S
C179 C20 1.507 . S
C183 C55 1.482 . S
C201 C57 1.327 . S
C197 C10 1.342 . S
