# Generated by pormake.
# Topology scu, (8,4)-cn, num edge types: 1
# Building blocks:
#     Node 0, Type 0, BuildingBlock: GIZVER_clean_sbu_0, # of connection points: 8
#     Node 1, Type 1, BuildingBlock: MUDLON_clean_sbu_0, # of connection points: 4
#     Node 2, Type 1, BuildingBlock: MUDLON_clean_sbu_0, # of connection points: 4
#     Edge 3, Type (0, 1), BuildingBlock: CIFDUS_clean_linker_0, # of connection points: 2
#     Edge 4, Type (0, 1), BuildingBlock: CIFDUS_clean_linker_0, # of connection points: 2
#     Edge 5, Type (0, 1), BuildingBlock: CIFDUS_clean_linker_0, # of connection points: 2
#     Edge 6, Type (0, 1), BuildingBlock: CIFDUS_clean_linker_0, # of connection points: 2
#     Edge 7, Type (0, 1), BuildingBlock: CIFDUS_clean_linker_0, # of connection points: 2
#     Edge 8, Type (0, 1), BuildingBlock: CIFDUS_clean_linker_0, # of connection points: 2
#     Edge 9, Type (0, 1), BuildingBlock: CIFDUS_clean_linker_0, # of connection points: 2
#     Edge 10, Type (0, 1), BuildingBlock: CIFDUS_clean_linker_0, # of connection points: 2
# Relax obj value: 0.009
# Max RMSD: 0.069
# Mean RMSD: 0.041
data_MOF--net-scu--node1-GIZVER_clean_sbu_0--node2-MUDLON_clean_sbu_0--edge1-CIFDUS_clean_linker_0
_symmetry_space_group_name_H-M    P1
_symmetry_Int_Tables_number       1
_symmetry_cell_setting            triclinic
loop_
_symmetry_equiv_pos_as_xyz
'x, y, z'
_cell_length_a     20.900461
_cell_length_b     21.26072
_cell_length_c     19.772297
_cell_angle_alpha  101.60712
_cell_angle_beta   80.075473
_cell_angle_gamma 115.20131
loop_
_atom_site_label
_atom_site_type_symbol
_atom_site_fract_x
_atom_site_fract_y
_atom_site_fract_z
_atom_type_partial_charge
Co0 Co 0.03814 0.96416 0.23766 0.0
Co1 Co 0.15739 0.0645 0.20257 0.0
Co2 Co 0.0371 0.04573 0.10679 0.0
O3 O 0.08357 1.003 0.15238 0.0
H4 H 0.09952 0.97124 0.11929 0.0
O5 O 0.98712 0.08614 0.06249 0.0
Co6 Co 0.00415 0.09599 0.96552 0.0
Co7 Co 0.90182 1.00783 1.04273 0.0
H8 H 0.97781 0.12388 0.09241 0.0
O9 O 0.22649 0.03815 0.21927 0.0
O10 O 0.12407 0.02701 0.28532 0.0
O11 O 0.16645 0.15904 0.22091 0.0
O12 O 0.06957 0.13901 0.17166 0.0
O13 O 0.12282 0.08108 1.03935 0.0
O14 O 0.01589 0.10821 0.87775 0.0
O15 O 0.96044 0.15516 0.9676 0.0
O16 O 0.05712 0.03995 0.95028 0.0
O17 O 0.00677 0.95361 1.04275 0.0
O18 O 0.89021 0.91347 0.04888 0.0
O19 O 0.91112 1.01373 0.94957 0.0
O20 O 0.824 0.02134 1.03234 0.0
C21 C 0.03101 0.8804 0.27993 0.0
C22 C 0.94922 0.03077 0.23492 0.0
C23 C 0.1199 0.17841 0.21005 0.0
C24 C 0.18449 0.02064 0.27528 0.0
C25 C 0.9802 0.14668 0.90106 0.0
C26 C 0.11781 0.06529 0.97385 0.0
C27 C 0.94663 0.90316 1.03342 0.0
C28 C 0.8499 1.01844 0.96774 0.0
O29 O -0.00079 0.92049 0.31225 0.0
O30 O 0.06834 0.89415 0.22041 0.0
O31 O 0.94938 1.00962 0.17025 0.0
O32 O 0.99741 0.03237 0.2676 0.0
Mg33 Mg 0.97625 0.50935 0.61207 0.0
C34 C 0.09807 0.46456 0.52837 0.0
O35 O 0.13449 0.49051 0.58275 0.0
C36 C 0.97415 0.60011 0.73753 0.0
O37 O 0.90879 0.55536 0.7269 0.0
C38 C 0.91577 0.36527 0.65746 0.0
O39 O 0.94671 0.35112 0.59619 0.0
O40 O 0.91039 0.42401 0.673 0.0
O41 O 0.03875 0.46841 0.53088 0.0
O42 O 0.93464 0.55838 0.5536 0.0
C43 C 0.98596 0.59751 0.51529 0.0
O44 O 0.04976 0.60035 0.51672 0.0
O45 O 0.02446 0.59499 0.69327 0.0
Mg46 Mg 0.53936 0.04351 0.60319 0.0
C47 C 0.40045 0.97218 0.53783 0.0
O48 O 0.37638 0.99059 0.60109 0.0
C49 C 0.64135 0.03947 0.67904 0.0
O50 O 0.65646 0.10572 0.67684 0.0
C51 C 0.47945 0.08432 0.74967 0.0
O52 O 0.5201 0.05844 0.76722 0.0
O53 O 0.4814 0.08943 0.68617 0.0
O54 O 0.4651 0.9802 0.52613 0.0
O55 O 0.6337 0.11477 0.5481 0.0
C56 C 0.64001 0.10404 0.4822 0.0
O57 O 0.58275 0.06531 0.45012 0.0
O58 O 0.58797 0.99237 0.64973 0.0
H59 H 0.20944 0.26785 0.30572 0.0
H60 H 0.02156 0.23309 0.21423 0.0
H61 H 0.00267 0.32406 0.30158 0.0
H62 H 0.03149 0.40325 0.4109 0.0
H63 H 0.21534 0.43341 0.50633 0.0
H64 H 0.24388 0.35446 0.4099 0.0
C65 C 0.16498 0.28087 0.30388 0.0
C66 C 0.11671 0.24297 0.25345 0.0
C67 C 0.15317 0.3318 0.35554 0.0
C68 C 0.05964 0.26111 0.25218 0.0
C69 C 0.04847 0.31287 0.30251 0.0
C70 C 0.07831 0.39326 0.41049 0.0
C71 C 0.12074 0.42366 0.46643 0.0
C72 C 0.09362 0.3469 0.35561 0.0
C73 C 0.18148 0.41045 0.46437 0.0
C74 C 0.19775 0.3652 0.40924 0.0
H75 H 0.93507 0.09108 0.37021 0.0
H76 H 0.83484 0.02118 0.17925 0.0
H77 H 0.73567 0.04866 0.23695 0.0
H78 H 0.67109 0.0805 0.3433 0.0
H79 H 0.76756 0.14804 0.53601 0.0
H80 H 0.87483 0.13568 0.47562 0.0
C81 C 0.89168 0.08222 0.34126 0.0
C82 C 0.892 0.05271 0.27078 0.0
C83 C 0.83403 0.09806 0.37493 0.0
C84 C 0.83587 0.04289 0.23373 0.0
C85 C 0.77894 0.05875 0.26662 0.0
C86 C 0.71602 0.09384 0.37203 0.0
C87 C 0.71064 0.11412 0.44422 0.0
C88 C 0.77663 0.08473 0.33746 0.0
C89 C 0.7699 0.13198 0.48037 0.0
C90 C 0.83114 0.12426 0.44597 0.0
H91 H 0.93079 0.81202 0.37828 0.0
H92 H 0.1259 0.82006 0.25676 0.0
H93 H 0.12664 0.73065 0.31685 0.0
H94 H 0.07505 0.65432 0.40691 0.0
H95 H 0.87883 0.64313 0.5278 0.0
H96 H 0.87457 0.72894 0.46409 0.0
C97 C 0.97319 0.7938 0.3647 0.0
C98 C 0.02831 0.82268 0.31313 0.0
C99 C 0.97292 0.74181 0.39915 0.0
C100 C 0.08263 0.79831 0.29577 0.0
C101 C 0.08322 0.74739 0.33033 0.0
C102 C 0.03098 0.67023 0.41915 0.0
C103 C 0.97755 0.64276 0.47243 0.0
C104 C 0.02904 0.71932 0.38246 0.0
C105 C 0.92047 0.66331 0.48695 0.0
C106 C 0.91831 0.71267 0.45079 0.0
H107 H 0.2966 0.98481 0.26374 0.0
H108 H 0.12371 1.00416 0.40828 0.0
H109 H 0.17014 0.98026 0.501 0.0
H110 H 0.26763 0.96839 0.54372 0.0
H111 H 0.44137 0.9509 0.39901 0.0
H112 H 0.38594 0.95815 0.3036 0.0
C113 C 0.26872 0.98333 0.3154 0.0
C114 C 0.20773 0.99799 0.32939 0.0
C115 C 0.29593 0.96997 0.36856 0.0
C116 C 0.17137 0.99415 0.39626 0.0
C117 C 0.19791 0.98047 0.44936 0.0
C118 C 0.2928 0.96479 0.49117 0.0
C119 C 0.3593 0.96036 0.47891 0.0
C120 C 0.26133 0.97043 0.43656 0.0
C121 C 0.39058 0.95498 0.41024 0.0
C122 C 0.3591 0.95955 0.35558 0.0
H123 H 0.055 0.87913 0.95134 0.0
H124 H 0.83193 0.77738 1.01972 0.0
H125 H 0.82358 0.67196 0.93825 0.0
H126 H 0.87633 0.61341 0.8411 0.0
H127 H 0.09743 0.71617 0.76695 0.0
H128 H 0.11009 0.81665 0.8581 0.0
C129 C 0.00478 0.83347 0.94931 0.0
C130 C 0.94396 0.83624 0.9914 0.0
C131 C -7e-05 0.77367 0.901 0.0
C132 C 0.87933 0.77677 0.9877 0.0
C133 C 0.87451 0.71656 0.94103 0.0
C134 C 0.92761 0.65747 0.84497 0.0
C135 C 0.98572 0.65763 0.79672 0.0
C136 C 0.93397 0.7152 0.8963 0.0
C137 C 0.05184 0.71484 0.80323 0.0
C138 C 0.05897 0.77233 0.85519 0.0
H139 H 0.25095 0.09045 1.002 0.0
H140 H 0.12841 0.05878 0.83372 0.0
H141 H 0.2317 0.06979 0.7505 0.0
H142 H 0.35485 0.08201 0.72426 0.0
H143 H 0.47614 0.10625 0.89073 0.0
H144 H 0.37599 0.10585 0.9757 0.0
C145 C 0.24698 0.08633 0.94718 0.0
C146 C 0.1818 0.07346 0.92431 0.0
C147 C 0.30655 0.09172 0.89912 0.0
C148 C 0.17764 0.0681 0.85294 0.0
C149 C 0.23682 0.07464 0.80514 0.0
C150 C 0.35984 0.08841 0.77919 0.0
C151 C 0.42291 0.09436 0.80114 0.0
C152 C 0.30132 0.08575 0.82752 0.0
C153 C 0.42811 0.10164 0.8725 0.0
C154 C 0.37076 0.10109 0.9211 0.0
H155 H 0.93303 0.25315 0.92337 0.0
H156 H 0.97585 0.10096 0.76343 0.0
H157 H 0.94863 0.14825 0.67556 0.0
H158 H 0.92542 0.2399 0.64161 0.0
H159 H 0.88643 0.3962 0.79837 0.0
H160 H 0.89746 0.33944 0.88926 0.0
C161 C 0.93605 0.23031 0.86934 0.0
C162 C 0.95838 0.17475 0.8501 0.0
C163 C 0.92085 0.25841 0.81811 0.0
C164 C 0.96074 0.14494 0.77985 0.0
C165 C 0.94469 0.17164 0.7293 0.0
C166 C 0.91814 0.26107 0.69567 0.0
C167 C 0.90611 0.32286 0.7128 0.0
C168 C 0.92663 0.2295 0.7475 0.0
C169 C 0.896 0.34884 0.78338 0.0
C170 C 0.90294 0.31671 0.83552 0.0
H171 H 0.81166 0.94243 0.84133 0.0
H172 H 0.80738 0.12331 0.98402 0.0
H173 H 0.74571 0.14734 0.90505 0.0
H174 H 0.68985 0.11536 0.79828 0.0
H175 H 0.67887 0.92732 0.65981 0.0
H176 H 0.74867 0.90646 0.73452 0.0
C177 C 0.79724 0.98706 0.8545 0.0
C178 C 0.81426 0.03154 0.9177 0.0
C179 C 0.75855 0.99864 0.81017 0.0
C180 C 0.79449 0.08852 0.93548 0.0
C181 C 0.75932 0.10226 0.89048 0.0
C182 C 0.70283 0.0698 0.78435 0.0
C183 C 0.6799 0.02307 0.72379 0.0
C184 C 0.74057 0.05737 0.82818 0.0
C185 C 0.69592 0.9637 0.70664 0.0
C186 C 0.73599 0.95208 0.74908 0.0
loop_
_geom_bond_atom_site_label_1
_geom_bond_atom_site_label_2
_geom_bond_distance
_geom_bond_site_symmetry_2
_ccdc_geom_bond_type
Co0 O3 2.042 . S
Co0 O10 2.264 1_565 S
Co0 O29 2.286 1_455 S
Co0 O30 2.069 . S
Co0 O32 2.015 1_455 S
Co1 O3 2.122 1_545 S
Co1 O9 2.073 . S
Co1 O10 2.327 . S
Co1 O11 1.976 . S
Co2 O3 2.087 1_545 S
Co2 O5 2.087 1_455 S
Co2 O12 2.111 . S
Co2 O13 2.143 . S
Co2 O17 2.111 1_445 S
Co2 O31 2.143 1_445 S
O3 Co0 2.042 . S
O3 Co1 2.122 1_565 S
O3 Co2 2.087 1_565 S
O3 H4 0.980 . S
H4 O3 0.980 . S
O5 Co2 2.087 1_655 S
O5 Co6 2.042 1_654 S
O5 Co7 2.122 1_544 S
O5 H8 0.980 . S
Co6 O5 2.042 1_456 S
Co6 O14 2.286 . S
Co6 O15 2.069 1_455 S
Co6 O16 2.015 . S
Co6 O19 2.264 1_455 S
Co7 O5 2.122 1_566 S
Co7 O18 1.976 . S
Co7 O19 2.327 1_565 S
Co7 O20 2.073 . S
H8 O5 0.980 . S
O9 Co1 2.073 . S
O9 C24 1.245 . S
O10 Co0 2.264 1_545 S
O10 Co1 2.327 . S
O10 C24 1.257 . S
O11 Co1 1.976 . S
O11 C23 1.251 . S
O12 Co2 2.111 . S
O12 C23 1.274 . S
O13 Co2 2.143 . S
O13 C26 1.246 1_554 S
O14 Co6 2.286 . S
O14 C25 1.259 . S
O15 Co6 2.069 1_655 S
O15 C25 1.289 1_655 S
O16 Co6 2.015 . S
O16 C26 1.257 . S
O17 Co2 2.111 1_665 S
O17 C27 1.274 1_554 S
O18 Co7 1.976 . S
O18 C27 1.251 . S
O19 Co6 2.264 1_655 S
O19 Co7 2.327 1_545 S
O19 C28 1.257 . S
O20 Co7 2.073 . S
O20 C28 1.245 1_565 S
C21 O29 1.259 1_455 S
C21 O30 1.289 . S
C22 O31 1.246 . S
C22 O32 1.257 . S
C23 O11 1.251 . S
C23 O12 1.274 . S
C24 O9 1.245 . S
C24 O10 1.257 . S
C25 O14 1.259 . S
C25 O15 1.289 1_455 S
C26 O13 1.246 1_556 S
C26 O16 1.257 . S
C27 O17 1.274 1_556 S
C27 O18 1.251 . S
C28 O19 1.257 . S
C28 O20 1.245 1_545 S
O29 Co0 2.286 1_655 S
O29 C21 1.259 1_655 S
O30 Co0 2.069 . S
O30 C21 1.289 . S
O31 Co2 2.143 1_665 S
O31 C22 1.246 . S
O32 Co0 2.015 1_655 S
O32 C22 1.257 . S
Mg33 O40 2.141 . S
Mg33 O41 2.048 . S
Mg33 O42 2.048 . S
Mg33 O45 2.141 . S
C34 O35 1.313 . S
C34 O41 1.195 1_455 S
O35 C34 1.313 . S
C36 O37 1.245 . S
C36 O45 1.289 1_455 S
O37 C36 1.245 . S
C38 O39 1.245 . S
C38 O40 1.289 1_455 S
O39 C38 1.245 . S
O40 Mg33 2.141 . S
O40 C38 1.289 1_655 S
O41 Mg33 2.048 . S
O41 C34 1.195 1_655 S
O42 Mg33 2.048 . S
O42 C43 1.195 1_655 S
C43 O42 1.195 1_455 S
C43 O44 1.313 . S
O44 C43 1.313 . S
O45 Mg33 2.141 . S
O45 C36 1.289 1_655 S
Mg46 O53 2.141 . S
Mg46 O54 2.048 . S
Mg46 O55 2.048 . S
Mg46 O58 2.141 . S
C47 O48 1.313 1_545 S
C47 O54 1.195 . S
O48 C47 1.313 1_565 S
C49 O50 1.245 1_545 S
C49 O58 1.289 . S
O50 C49 1.245 1_565 S
C51 O52 1.245 1_545 S
C51 O53 1.289 . S
O52 C51 1.245 1_565 S
O53 Mg46 2.141 . S
O53 C51 1.289 . S
O54 Mg46 2.048 . S
O54 C47 1.195 . S
O55 Mg46 2.048 . S
O55 C56 1.195 . S
C56 O55 1.195 . S
C56 O57 1.313 1_545 S
O57 C56 1.313 1_565 S
O58 Mg46 2.141 . S
O58 C49 1.289 . S
H59 C65 0.930 . S
H60 C68 0.930 . S
H61 C69 0.930 . S
H62 C70 0.930 . S
H63 C73 0.930 . S
H64 C74 0.930 . S
C65 H59 0.930 . S
C65 C66 1.355 . S
C65 C67 1.415 . S
C66 C65 1.355 . S
C66 C68 1.419 1_455 S
C67 C65 1.415 . S
C67 C72 1.425 1_455 S
C67 C74 1.409 . S
C68 H60 0.930 . S
C68 C66 1.419 1_655 S
C68 C69 1.362 . S
C69 H61 0.930 . S
C69 C68 1.362 . S
C69 C72 1.409 . S
C70 H62 0.930 . S
C70 C71 1.355 1_655 S
C70 C72 1.415 . S
C71 C70 1.355 1_455 S
C71 C73 1.419 . S
C72 C67 1.425 1_655 S
C72 C69 1.409 . S
C72 C70 1.415 . S
C73 H63 0.930 . S
C73 C71 1.419 . S
C73 C74 1.362 . S
C74 H64 0.930 . S
C74 C67 1.409 . S
C74 C73 1.362 . S
H75 C81 0.930 . S
H76 C84 0.930 . S
H77 C85 0.930 . S
H78 C86 0.930 . S
H79 C89 0.930 . S
H80 C90 0.930 . S
C81 H75 0.930 . S
C81 C82 1.350 1_545 S
C81 C83 1.415 . S
C82 C81 1.350 1_565 S
C82 C84 1.424 . S
C83 C81 1.415 . S
C83 C88 1.425 1_545 S
C83 C90 1.409 . S
C84 H76 0.930 . S
C84 C82 1.424 . S
C84 C85 1.362 . S
C85 H77 0.930 . S
C85 C84 1.362 . S
C85 C88 1.409 . S
C86 H78 0.930 . S
C86 C87 1.355 1_565 S
C86 C88 1.415 . S
C87 C86 1.355 1_545 S
C87 C89 1.419 . S
C88 C83 1.425 1_565 S
C88 C85 1.409 . S
C88 C86 1.415 . S
C89 H79 0.930 . S
C89 C87 1.419 . S
C89 C90 1.362 . S
C90 H80 0.930 . S
C90 C83 1.409 . S
C90 C89 1.362 . S
H91 C97 0.930 1_655 S
H92 C100 0.930 . S
H93 C101 0.930 . S
H94 C102 0.930 . S
H95 C105 0.930 . S
H96 C106 0.930 . S
C97 H91 0.930 1_455 S
C97 C98 1.355 . S
C97 C99 1.415 . S
C98 C97 1.355 . S
C98 C100 1.419 . S
C99 C97 1.415 . S
C99 C104 1.425 . S
C99 C106 1.409 1_455 S
C100 H92 0.930 . S
C100 C98 1.419 . S
C100 C101 1.362 . S
C101 H93 0.930 . S
C101 C100 1.362 . S
C101 C104 1.409 . S
C102 H94 0.930 . S
C102 C103 1.355 . S
C102 C104 1.415 . S
C103 C102 1.355 . S
C103 C105 1.419 1_455 S
C104 C99 1.425 . S
C104 C101 1.409 . S
C104 C102 1.415 . S
C105 H95 0.930 . S
C105 C103 1.419 1_655 S
C105 C106 1.362 . S
C106 H96 0.930 . S
C106 C99 1.409 1_655 S
C106 C105 1.362 . S
H107 C113 0.930 . S
H108 C116 0.930 . S
H109 C117 0.930 . S
H110 C118 0.930 . S
H111 C121 0.930 . S
H112 C122 0.930 . S
C113 H107 0.930 . S
C113 C114 1.355 . S
C113 C115 1.415 . S
C114 C113 1.355 . S
C114 C116 1.419 1_565 S
C115 C113 1.415 . S
C115 C120 1.425 1_565 S
C115 C122 1.409 . S
C116 H108 0.930 . S
C116 C114 1.419 1_545 S
C116 C117 1.362 . S
C117 H109 0.930 . S
C117 C116 1.362 . S
C117 C120 1.409 . S
C118 H110 0.930 . S
C118 C119 1.355 . S
C118 C120 1.415 . S
C119 C118 1.355 . S
C119 C121 1.419 1_545 S
C120 C115 1.425 1_545 S
C120 C117 1.409 . S
C120 C118 1.415 . S
C121 H111 0.930 . S
C121 C119 1.419 1_565 S
C121 C122 1.362 . S
C122 H112 0.930 . S
C122 C115 1.409 . S
C122 C121 1.362 . S
H123 C129 0.930 . S
H124 C132 0.930 . S
H125 C133 0.930 . S
H126 C134 0.930 . S
H127 C137 0.930 . S
H128 C138 0.930 . S
C129 H123 0.930 . S
C129 C130 1.355 . S
C129 C131 1.415 . S
C130 C129 1.355 . S
C130 C132 1.419 1_455 S
C131 C129 1.415 . S
C131 C136 1.435 . S
C131 C138 1.409 . S
C132 H124 0.930 . S
C132 C130 1.419 1_655 S
C132 C133 1.362 . S
C133 H125 0.930 . S
C133 C132 1.362 . S
C133 C136 1.398 1_655 S
C134 H126 0.930 . S
C134 C135 1.355 1_655 S
C134 C136 1.416 1_655 S
C135 C134 1.355 1_455 S
C135 C137 1.419 . S
C136 C131 1.435 . S
C136 C133 1.398 1_455 S
C136 C134 1.416 1_455 S
C137 H127 0.930 . S
C137 C135 1.419 . S
C137 C138 1.362 . S
C138 H128 0.930 . S
C138 C131 1.409 . S
C138 C137 1.362 . S
H139 C145 0.930 . S
H140 C148 0.930 . S
H141 C149 0.930 . S
H142 C150 0.930 . S
H143 C153 0.929 . S
H144 C154 0.930 . S
C145 H139 0.930 . S
C145 C146 1.355 . S
C145 C147 1.415 . S
C146 C145 1.355 . S
C146 C148 1.419 . S
C147 C145 1.415 . S
C147 C152 1.425 . S
C147 C154 1.409 . S
C148 H140 0.930 . S
C148 C146 1.419 . S
C148 C149 1.362 . S
C149 H141 0.930 . S
C149 C148 1.362 . S
C149 C152 1.409 . S
C150 H142 0.930 . S
C150 C151 1.355 . S
C150 C152 1.415 . S
C151 C150 1.355 . S
C151 C153 1.419 . S
C152 C147 1.425 . S
C152 C149 1.409 . S
C152 C150 1.415 . S
C153 H143 0.929 . S
C153 C151 1.419 . S
C153 C154 1.362 . S
C154 H144 0.930 . S
C154 C147 1.409 . S
C154 C153 1.362 . S
H155 C161 0.930 . S
H156 C164 0.930 . S
H157 C165 0.930 . S
H158 C166 0.930 . S
H159 C169 0.930 . S
H160 C170 0.930 . S
C161 H155 0.930 . S
C161 C162 1.355 . S
C161 C163 1.415 . S
C162 C161 1.355 . S
C162 C164 1.419 1_455 S
C163 C161 1.415 . S
C163 C168 1.425 1_455 S
C163 C170 1.409 . S
C164 H156 0.930 . S
C164 C162 1.419 1_655 S
C164 C165 1.362 . S
C165 H157 0.930 . S
C165 C164 1.362 . S
C165 C168 1.409 . S
C166 H158 0.930 . S
C166 C167 1.355 1_655 S
C166 C168 1.415 . S
C167 C166 1.355 1_455 S
C167 C169 1.419 . S
C168 C163 1.425 1_655 S
C168 C165 1.409 . S
C168 C166 1.415 . S
C169 H159 0.930 . S
C169 C167 1.419 . S
C169 C170 1.362 . S
C170 H160 0.930 . S
C170 C163 1.409 . S
C170 C169 1.362 . S
H171 C177 0.930 . S
H172 C180 0.930 . S
H173 C181 0.930 . S
H174 C182 0.930 . S
H175 C185 0.930 . S
H176 C186 0.930 . S
C177 H171 0.930 . S
C177 C178 1.355 . S
C177 C179 1.415 . S
C178 C177 1.355 . S
C178 C180 1.419 . S
C179 C177 1.415 . S
C179 C184 1.425 . S
C179 C186 1.409 . S
C180 H172 0.930 . S
C180 C178 1.419 . S
C180 C181 1.362 . S
C181 H173 0.930 . S
C181 C180 1.362 . S
C181 C184 1.409 . S
C182 H174 0.930 . S
C182 C183 1.355 . S
C182 C184 1.415 . S
C183 C182 1.355 . S
C183 C185 1.419 . S
C184 C179 1.425 . S
C184 C181 1.409 . S
C184 C182 1.415 . S
C185 H175 0.930 . S
C185 C183 1.419 . S
C185 C186 1.362 . S
C186 H176 0.930 . S
C186 C179 1.409 . S
C186 C185 1.362 . S
C66 C23 1.346 . S
C71 C34 1.382 . S
C82 C22 1.405 . S
C87 C56 1.466 . S
C98 C21 1.692 . S
C103 C43 1.693 . S
C114 C24 1.477 1_565 S
C119 C47 1.521 . S
C130 C27 1.235 1_455 S
C135 C36 1.327 . S
C146 C26 1.334 . S
C151 C51 1.406 . S
C167 C38 1.614 . S
C162 C25 1.625 . S
C178 C28 1.427 . S
C183 C49 1.477 . S
