# Generated by pormake.
# Topology nia, (6,6)-cn, num edge types: 1
# Building blocks:
#     Node 0, Type 0, BuildingBlock: KUMBUR_clean_sbu_0, # of connection points: 6
#     Node 1, Type 0, BuildingBlock: KUMBUR_clean_sbu_0, # of connection points: 6
#     Node 2, Type 1, BuildingBlock: MIDCAF_clean_sbu_0, # of connection points: 6
#     Node 3, Type 1, BuildingBlock: MIDCAF_clean_sbu_0, # of connection points: 6
#     Edge 4, Type (0, 1), None
#     Edge 5, Type (0, 1), None
#     Edge 6, Type (0, 1), None
#     Edge 7, Type (0, 1), None
#     Edge 8, Type (0, 1), None
#     Edge 9, Type (0, 1), None
#     Edge 10, Type (0, 1), None
#     Edge 11, Type (0, 1), None
#     Edge 12, Type (0, 1), None
#     Edge 13, Type (0, 1), None
#     Edge 14, Type (0, 1), None
#     Edge 15, Type (0, 1), None
# Relax obj value: 0.201
# Max RMSD: 0.332
# Mean RMSD: 0.225
data_MOF--net-nia--node1-KUMBUR_clean_sbu_0--node2-MIDCAF_clean_sbu_0--edge1-none
_symmetry_space_group_name_H-M    P1
_symmetry_Int_Tables_number       1
_symmetry_cell_setting            triclinic
loop_
_symmetry_equiv_pos_as_xyz
'x, y, z'
_cell_length_a     15.111457
_cell_length_b     15.06669
_cell_length_c     17.407768
_cell_angle_alpha  90.002036
_cell_angle_beta   89.988681
_cell_angle_gamma 143.56981
loop_
_atom_site_label
_atom_site_type_symbol
_atom_site_fract_x
_atom_site_fract_y
_atom_site_fract_z
_atom_type_partial_charge
Tb0 Tb 0.01958 0.91899 0.0535 0.0
C1 C 0.94435 0.06123 0.71434 0.0
C2 C 0.29781 0.39661 0.6222 0.0
C3 C 0.17238 0.24673 0.58825 0.0
C4 C 0.07412 0.18474 0.7252 0.0
C5 C 0.03719 0.09584 0.66034 0.0
C6 C 0.31688 0.35361 0.55944 0.0
C7 C 0.90164 0.85505 0.71579 0.0
N8 N 0.87474 0.96542 0.77492 0.0
C9 C 0.80732 0.83669 0.75105 0.0
C10 C -0.00032 -0.02832 0.66559 0.0
Tb11 Tb 0.95655 0.04685 0.90677 0.0
N12 N 0.10312 0.25635 0.81964 0.0
C13 C 0.24149 0.45011 0.85409 0.0
C14 C 0.46128 0.62072 0.6696 0.0
C15 C 0.43766 0.65349 0.78291 0.0
H16 H 0.70487 0.73195 0.77534 0.0
H17 H 0.48161 0.67495 0.72514 0.0
H18 H 0.36936 0.42253 0.50858 0.0
H19 H 0.90029 0.78346 0.71824 0.0
H20 H 0.22125 0.45934 0.90997 0.0
H21 H 0.84155 0.4107 0.16514 0.0
H22 H 0.40935 0.53551 0.632 0.0
H23 H 0.76608 0.92042 0.16924 0.0
H24 H 0.95001 0.59684 0.05685 0.0
H25 H 0.83975 0.00209 0.28715 0.0
H26 H 0.13424 0.25859 0.53667 0.0
H27 H 0.78212 0.43611 0.26252 0.0
H28 H 0.48042 0.36461 0.36901 0.0
H29 H 0.0363 0.95323 0.62798 0.0
H30 H 0.54968 0.55738 0.42075 0.0
N31 N 0.90688 0.66835 0.13827 0.0
C32 C 0.89789 0.5785 0.1089 0.0
C33 C 0.77878 0.50271 0.22772 0.0
C34 C 0.67722 0.54476 0.25353 0.0
C35 C 0.83126 0.47433 0.16244 0.0
C36 C 0.76956 0.55923 0.21812 0.0
H37 H 0.88163 0.87904 0.32689 0.0
N38 N 0.73041 0.7472 0.17906 0.0
C39 C 0.7728 0.88996 0.27421 0.0
C40 C 0.68147 0.63237 0.23622 0.0
C41 C 0.72619 0.83326 0.20255 0.0
C42 C 0.77265 0.81816 0.31932 0.0
C43 C 0.65737 0.66793 0.30887 0.0
O44 O 0.21717 0.02152 0.10471 0.0
O45 O 0.10329 0.03786 0.94446 0.0
O46 O 0.81675 0.80956 0.8892 0.0
O47 O 0.96607 0.81986 0.93344 0.0
O48 O 0.24648 0.13957 0.03991 0.0
O49 O 0.08594 0.84019 0.02408 0.0
O50 O 0.74302 0.91956 0.8802 0.0
O51 O 0.85931 0.88823 -0.00219 0.0
O52 O 0.18226 0.1729 0.07725 0.0
O53 O 0.14038 0.24657 -0.01848 0.0
O54 O 0.85146 0.01696 0.009 0.0
O55 O 0.90194 0.13787 0.93163 0.0
C56 C 0.24701 0.14121 0.96499 0.0
C57 C 0.22644 0.8679 0.11932 0.0
C58 C 0.31902 0.78897 0.1263 0.0
C59 C 0.30962 0.86466 0.0877 0.0
C60 C 0.23241 0.70353 0.19127 0.0
C61 C 0.16403 0.80199 0.19255 0.0
C62 C 0.15665 0.71171 0.22482 0.0
C63 C 0.85701 0.75704 0.88715 0.0
C64 C 0.19732 0.92814 0.0728 0.0
C65 C 0.57513 0.56059 0.36243 0.0
C66 C 0.54502 0.45855 0.33147 0.0
C67 C 0.79059 0.89608 0.03318 0.0
C68 C 0.68621 0.02788 0.86648 0.0
C69 C 0.68033 0.10973 0.89622 0.0
C70 C 0.59657 0.10889 0.85764 0.0
C71 C 0.49956 0.00658 0.79828 0.0
C72 C 0.60571 0.94561 0.79977 0.0
C73 C 0.50492 0.92521 0.76901 0.0
C74 C 0.19075 0.26332 0.05129 0.0
C75 C 0.76576 0.01813 0.90618 0.0
H76 H 0.36437 0.91824 0.03276 0.0
H77 H 0.22509 0.63234 0.2169 0.0
H78 H 0.11343 0.81136 0.22597 0.0
H79 H 0.09483 0.65105 0.27742 0.0
H80 H 0.74795 0.18064 0.94581 0.0
H81 H 0.43054 5e-05 0.77004 0.0
H82 H 0.63652 0.91357 0.76625 0.0
H83 H 0.44241 0.85821 0.71781 0.0
Tb84 Tb 0.97319 0.05352 0.55342 0.0
C85 C 0.0486 0.91141 0.21436 0.0
C86 C 0.69467 0.57625 0.12243 0.0
C87 C 0.8203 0.72588 0.08839 0.0
C88 C 0.91852 0.78807 0.22531 0.0
C89 C 0.95558 0.87672 0.16047 0.0
C90 C 0.67592 0.61934 0.05953 0.0
C91 C 0.09128 0.11764 0.21588 0.0
N92 N 0.11843 0.00741 0.27485 0.0
C93 C 0.18569 0.13606 0.25101 0.0
C94 C -0.00662 0.00114 0.16564 0.0
Tb95 Tb 0.03688 0.92635 0.4067 0.0
N96 N 0.88921 0.71649 0.31984 0.0
C97 C 0.75028 0.52272 0.3545 0.0
C98 C 0.53061 0.35215 0.17005 0.0
C99 C 0.55384 0.31936 0.28347 0.0
H100 H 0.28812 0.24081 0.27526 0.0
H101 H 0.51005 0.29795 0.22567 0.0
H102 H 0.62335 0.55033 0.00871 0.0
H103 H 0.09264 0.18924 0.21835 0.0
H104 H 0.76996 0.51348 0.41056 0.0
H105 H 0.14956 0.56088 0.66429 0.0
H106 H 0.58281 0.43736 0.13236 0.0
H107 H 0.22724 0.05323 0.66976 0.0
H108 H 0.04169 0.37472 0.55624 0.0
H109 H 0.15246 -0.02853 0.78772 0.0
H110 H 0.85834 0.7138 0.03685 0.0
H111 H 0.2089 0.53576 0.7619 0.0
H112 H 0.51181 0.60924 0.86856 0.0
H113 H 0.95701 0.01974 0.12793 0.0
H114 H 0.44317 0.41668 0.92071 0.0
N115 N 0.08516 0.30376 0.6379 0.0
C116 C 0.09384 0.39331 0.60835 0.0
C117 C 0.21276 0.46951 0.72723 0.0
C118 C 0.31511 0.42838 0.75327 0.0
C119 C 0.16023 0.49756 0.66175 0.0
C120 C 0.22242 0.41333 0.71775 0.0
H121 H 0.11192 0.09573 0.82758 0.0
N122 N 0.26266 0.22626 0.67914 0.0
C123 C 0.21969 0.08366 0.77459 0.0
C124 C 0.31138 0.34115 0.73612 0.0
C125 C 0.26696 0.1404 0.70292 0.0
C126 C 0.2206 0.15622 0.8196 0.0
C127 C 0.33609 0.30632 0.80886 0.0
O128 O 0.77542 0.95054 0.60479 0.0
O129 O 0.88988 0.93501 0.44438 0.0
O130 O 0.17651 0.16356 0.38922 0.0
O131 O 0.02667 0.15268 0.43331 0.0
O132 O 0.74656 0.8326 0.53986 0.0
O133 O 0.9061 0.13156 0.52401 0.0
O134 O 0.25052 0.05398 0.37967 0.0
O135 O 0.13383 0.08467 0.49783 0.0
O136 O 0.81105 0.79974 0.57713 0.0
O137 O 0.85354 0.7266 0.48147 0.0
O138 O 0.14199 0.95615 0.50887 0.0
O139 O 0.09209 0.83584 0.43122 0.0
C140 C 0.7461 0.83138 0.46493 0.0
C141 C 0.76547 0.10364 0.61933 0.0
C142 C 0.67263 0.18234 0.62634 0.0
C143 C 0.68202 0.10658 0.58777 0.0
C144 C 0.75953 0.26813 0.69115 0.0
C145 C 0.82806 0.16982 0.69246 0.0
C146 C 0.83549 0.26019 0.72465 0.0
C147 C 0.13607 0.21588 0.38714 0.0
C148 C 0.79482 0.04357 0.57282 0.0
C149 C 0.41796 0.41363 0.86234 0.0
C150 C 0.44742 0.51519 0.83122 0.0
C151 C 0.20258 0.07683 0.53318 0.0
C152 C 0.30768 0.94591 0.36574 0.0
C153 C 0.31373 0.86424 0.39558 0.0
C154 C 0.3972 0.86474 0.35697 0.0
C155 C 0.49381 0.96655 0.29737 0.0
C156 C 0.38786 0.02777 0.29884 0.0
C157 C 0.48836 0.04782 0.26798 0.0
C158 C 0.80291 0.70956 0.55118 0.0
C159 C 0.2281 0.95561 0.40556 0.0
H160 H 0.62711 0.05278 0.53291 0.0
H161 H 0.76694 0.33944 0.71669 0.0
H162 H 0.87884 0.16065 0.72586 0.0
H163 H 0.89754 0.32112 0.77715 0.0
H164 H 0.24641 0.79371 0.44534 0.0
H165 H 0.5626 -0.02718 0.26907 0.0
H166 H 0.35702 0.0597 0.26523 0.0
H167 H 0.55059 0.11447 0.21664 0.0
Zn168 Zn 0.37498 0.63345 -0.01847 0.0
Zn169 Zn 0.28147 0.5336 0.46309 0.0
Zn170 Zn 0.4389 0.6418 0.22998 0.0
C171 C 0.59999 0.76201 0.43233 0.0
C172 C 0.21947 0.35601 0.34042 0.0
O173 O 0.42591 0.72728 0.12906 0.0
O174 O 0.39985 0.77783 0.01891 0.0
C175 C 0.62447 0.76661 0.04846 0.0
O176 O 0.54476 0.72065 0.36176 0.0
O177 O 0.50386 0.69444 0.48544 0.0
O178 O 0.20265 0.42151 0.36219 0.0
O179 O 0.29745 0.40908 0.27734 0.0
O180 O 0.55276 0.70054 -0.01302 0.0
O181 O 0.56372 0.76748 0.10258 0.0
O182 O 0.30384 0.41906 0.17269 0.0
O183 O 0.32098 0.50392 0.06485 0.0
C184 C 0.27385 0.39887 0.09923 0.0
O185 O 0.39413 0.70532 0.32501 0.0
O186 O 0.31288 0.6851 0.43947 0.0
C187 C 0.39576 0.77554 0.09166 0.0
C188 C 0.37267 0.75072 0.37503 0.0
Zn189 Zn 0.71265 0.44075 0.96279 0.0
Zn190 Zn 0.61721 0.33774 0.48141 0.0
Zn191 Zn 0.55465 0.33118 0.72998 0.0
C192 C 0.7196 0.57378 0.59895 0.0
C193 C 0.36861 0.20639 0.54871 0.0
O194 O 0.59961 0.26806 0.82514 0.0
O195 O 0.68126 0.28915 0.93967 0.0
C196 C 0.77393 0.61717 0.84027 0.0
O197 O 0.68978 0.55361 0.67243 0.0
O198 O 0.67212 0.46862 0.56437 0.0
O199 O 0.44062 0.27272 0.48729 0.0
O200 O 0.42901 0.2051 0.60283 0.0
O201 O 0.79149 0.55227 0.86182 0.0
O202 O 0.69553 0.56373 0.77735 0.0
O203 O 0.448 0.25259 0.86137 0.0
O204 O 0.49051 0.28084 -0.01499 0.0
C205 C 0.39379 0.2122 0.93213 0.0
O206 O 0.56608 0.24445 0.62898 0.0
O207 O 0.59097 0.19249 0.51899 0.0
C208 C 0.62125 0.22307 0.87536 0.0
C209 C 0.59572 0.19558 0.59172 0.0
loop_
_geom_bond_atom_site_label_1
_geom_bond_atom_site_label_2
_geom_bond_distance
_geom_bond_site_symmetry_2
_ccdc_geom_bond_type
Tb0 N31 2.660 1_455 S
Tb0 N38 2.600 . S
Tb0 O44 2.546 1_565 S
Tb0 O45 2.610 1_564 S
Tb0 O47 2.320 1_454 S
Tb0 O48 2.552 1_564 S
Tb0 O49 2.413 . S
Tb0 O51 2.362 1_455 S
Tb0 O52 2.421 1_565 S
Tb0 C64 2.833 . S
C1 C4 1.432 . S
C1 C5 1.414 . S
C1 N8 1.359 1_455 S
C2 C4 1.417 . S
C2 C6 1.432 . S
C2 C14 1.410 . S
C3 C5 1.444 . S
C3 C6 1.317 . S
C3 H26 0.929 . S
C4 C1 1.432 . S
C4 C2 1.417 . S
C4 N12 1.360 . S
C5 C1 1.414 . S
C5 C3 1.444 . S
C5 C10 1.385 1_455 S
C6 C2 1.432 . S
C6 C3 1.317 . S
C6 H18 0.930 . S
C7 C9 1.392 . S
C7 C10 1.370 1_565 S
C7 H19 0.931 . S
N8 C1 1.359 1_655 S
N8 C9 1.327 1_545 S
N8 Tb11 2.600 . S
C9 C7 1.392 . S
C9 N8 1.327 1_565 S
C9 H16 0.930 . S
C10 C5 1.385 1_655 S
C10 C7 1.370 1_545 S
C10 H29 0.930 . S
Tb11 N8 2.600 . S
Tb11 N12 2.660 1_655 S
Tb11 O45 2.362 1_655 S
Tb11 O46 2.421 1_545 S
Tb11 O50 2.546 1_545 S
Tb11 O51 2.610 1_546 S
Tb11 O53 2.320 1_656 S
Tb11 O54 2.552 1_546 S
Tb11 O55 2.413 . S
Tb11 C75 2.833 . S
N12 C4 1.360 . S
N12 Tb11 2.660 1_455 S
N12 C13 1.305 . S
C13 N12 1.305 . S
C13 C15 1.407 . S
C13 H20 0.930 . S
C14 C2 1.410 . S
C14 C15 1.345 . S
C14 H22 0.930 . S
C15 C13 1.407 . S
C15 C14 1.345 . S
C15 H17 0.930 . S
H16 C9 0.930 . S
H17 C15 0.930 . S
H18 C6 0.930 . S
H19 C7 0.931 . S
H20 C13 0.930 . S
H21 C35 0.930 . S
H22 C14 0.930 . S
H23 C41 0.930 . S
H24 C32 0.930 . S
H25 C39 0.931 . S
H26 C3 0.929 . S
H27 C33 0.930 . S
H28 C66 0.930 . S
H29 C10 0.930 . S
H30 C65 0.929 . S
N31 Tb0 2.660 1_655 S
N31 C32 1.305 . S
N31 C36 1.360 . S
C32 H24 0.930 . S
C32 N31 1.305 . S
C32 C35 1.407 . S
C33 H27 0.930 . S
C33 C34 1.410 . S
C33 C35 1.345 . S
C34 C33 1.410 . S
C34 C36 1.417 . S
C34 C66 1.432 . S
C35 H21 0.930 . S
C35 C32 1.407 . S
C35 C33 1.345 . S
C36 N31 1.360 . S
C36 C34 1.417 . S
C36 C40 1.432 . S
H37 C42 0.930 . S
N38 Tb0 2.600 . S
N38 C40 1.359 1_455 S
N38 C41 1.327 1_565 S
C39 H25 0.931 . S
C39 C41 1.392 . S
C39 C42 1.370 1_545 S
C40 C36 1.432 . S
C40 N38 1.359 1_655 S
C40 C43 1.414 . S
C41 H23 0.930 . S
C41 N38 1.327 1_545 S
C41 C39 1.392 . S
C42 H37 0.930 . S
C42 C39 1.370 1_565 S
C42 C43 1.385 1_455 S
C43 C40 1.414 . S
C43 C42 1.385 1_655 S
C43 C65 1.444 . S
O44 Tb0 2.546 1_545 S
O44 C64 1.251 1_545 S
O45 Tb0 2.610 1_546 S
O45 Tb11 2.362 1_455 S
O45 C56 1.283 . S
O46 Tb11 2.421 1_565 S
O46 C63 1.262 . S
O47 Tb0 2.320 1_656 S
O47 C63 1.260 . S
O48 Tb0 2.552 1_546 S
O48 C56 1.243 . S
O49 Tb0 2.413 . S
O49 C64 1.256 . S
O50 Tb11 2.546 1_565 S
O50 C75 1.251 1_565 S
O51 Tb0 2.362 1_655 S
O51 Tb11 2.610 1_564 S
O51 C67 1.283 . S
O52 Tb0 2.421 1_545 S
O52 C74 1.262 . S
O53 Tb11 2.320 1_454 S
O53 C74 1.260 . S
O54 Tb11 2.552 1_564 S
O54 C67 1.243 . S
O55 Tb11 2.413 . S
O55 C75 1.256 . S
C56 O45 1.283 . S
C56 O48 1.243 . S
C57 C59 1.382 . S
C57 C61 1.393 . S
C57 C64 1.500 . S
C58 C59 1.400 . S
C58 C60 1.384 . S
C59 C57 1.382 . S
C59 C58 1.400 . S
C59 H76 0.930 . S
C60 C58 1.384 . S
C60 C62 1.392 . S
C60 H77 0.931 . S
C61 C57 1.393 . S
C61 C62 1.401 . S
C61 H78 0.930 1_565 S
C62 C60 1.392 . S
C62 C61 1.401 . S
C62 H79 0.930 . S
C63 O46 1.262 . S
C63 O47 1.260 . S
C64 Tb0 2.833 . S
C64 O44 1.251 1_565 S
C64 O49 1.256 . S
C64 C57 1.500 . S
C65 H30 0.929 . S
C65 C43 1.444 . S
C65 C66 1.317 . S
C66 H28 0.930 . S
C66 C34 1.432 . S
C66 C65 1.317 . S
C67 O51 1.283 . S
C67 O54 1.243 . S
C68 C69 1.382 . S
C68 C72 1.393 . S
C68 C75 1.500 . S
C69 C68 1.382 . S
C69 C70 1.400 . S
C69 H80 0.930 . S
C70 C69 1.400 . S
C70 C71 1.384 . S
C71 C70 1.384 . S
C71 C73 1.392 . S
C71 H81 0.931 . S
C72 C68 1.393 . S
C72 C73 1.401 . S
C72 H82 0.930 1_545 S
C73 C71 1.392 . S
C73 C72 1.401 . S
C73 H83 0.930 . S
C74 O52 1.262 . S
C74 O53 1.260 . S
C75 Tb11 2.833 . S
C75 O50 1.251 1_545 S
C75 O55 1.256 . S
C75 C68 1.500 . S
H76 C59 0.930 . S
H77 C60 0.931 . S
H78 C61 0.930 1_545 S
H79 C62 0.930 . S
H80 C69 0.930 . S
H81 C71 0.931 . S
H82 C72 0.930 1_565 S
H83 C73 0.930 . S
Tb84 N115 2.660 1_655 S
Tb84 N122 2.600 1_655 S
Tb84 O128 2.546 1_545 S
Tb84 O129 2.610 1_545 S
Tb84 O131 2.320 1_655 S
Tb84 O132 2.552 1_545 S
Tb84 O133 2.413 . S
Tb84 O135 2.362 1_655 S
Tb84 O136 2.421 1_545 S
Tb84 C148 2.833 . S
C85 C88 1.432 . S
C85 C89 1.414 . S
C85 N92 1.359 1_665 S
C86 C88 1.417 . S
C86 C90 1.432 . S
C86 C98 1.410 . S
C87 C89 1.444 . S
C87 C90 1.317 . S
C87 H110 0.929 . S
C88 C85 1.432 . S
C88 C86 1.417 . S
C88 N96 1.360 . S
C89 C85 1.414 . S
C89 C87 1.444 . S
C89 C94 1.385 1_665 S
C90 C86 1.432 . S
C90 C87 1.317 . S
C90 H102 0.930 . S
C91 C93 1.392 . S
C91 C94 1.370 . S
C91 H103 0.931 . S
N92 C85 1.359 1_445 S
N92 C93 1.327 . S
N92 Tb95 2.600 1_545 S
C93 C91 1.392 . S
C93 N92 1.327 . S
C93 H100 0.930 . S
C94 C89 1.385 1_445 S
C94 C91 1.370 . S
C94 H113 0.930 . S
Tb95 N92 2.600 1_565 S
Tb95 N96 2.660 1_455 S
Tb95 O129 2.362 1_455 S
Tb95 O130 2.421 1_565 S
Tb95 O134 2.546 1_565 S
Tb95 O135 2.610 1_565 S
Tb95 O137 2.320 1_455 S
Tb95 O138 2.552 1_565 S
Tb95 O139 2.413 . S
Tb95 C159 2.833 . S
N96 C88 1.360 . S
N96 Tb95 2.660 1_655 S
N96 C97 1.305 . S
C97 N96 1.305 . S
C97 C99 1.407 . S
C97 H104 0.930 . S
C98 C86 1.410 . S
C98 C99 1.345 . S
C98 H106 0.930 . S
C99 C97 1.407 . S
C99 C98 1.345 . S
C99 H101 0.930 . S
H100 C93 0.930 . S
H101 C99 0.930 . S
H102 C90 0.930 . S
H103 C91 0.931 . S
H104 C97 0.930 . S
H105 C119 0.930 . S
H106 C98 0.930 . S
H107 C125 0.930 . S
H108 C116 0.930 . S
H109 C123 0.931 . S
H110 C87 0.929 . S
H111 C117 0.930 . S
H112 C150 0.930 . S
H113 C94 0.930 . S
H114 C149 0.929 . S
N115 Tb84 2.660 1_455 S
N115 C116 1.305 . S
N115 C120 1.360 . S
C116 H108 0.930 . S
C116 N115 1.305 . S
C116 C119 1.407 . S
C117 H111 0.930 . S
C117 C118 1.410 . S
C117 C119 1.345 . S
C118 C117 1.410 . S
C118 C120 1.417 . S
C118 C150 1.432 . S
C119 H105 0.930 . S
C119 C116 1.407 . S
C119 C117 1.345 . S
C120 N115 1.360 . S
C120 C118 1.417 . S
C120 C124 1.432 . S
H121 C126 0.929 . S
N122 Tb84 2.600 1_455 S
N122 C124 1.359 . S
N122 C125 1.327 1_445 S
C123 H109 0.931 . S
C123 C125 1.392 . S
C123 C126 1.370 1_665 S
C124 C120 1.432 . S
C124 N122 1.359 . S
C124 C127 1.414 . S
C125 H107 0.930 . S
C125 N122 1.327 1_665 S
C125 C123 1.392 . S
C126 H121 0.929 . S
C126 C123 1.370 1_445 S
C126 C127 1.385 . S
C127 C124 1.414 . S
C127 C126 1.385 . S
C127 C149 1.444 . S
O128 Tb84 2.546 1_565 S
O128 C148 1.251 1_565 S
O129 Tb84 2.610 1_565 S
O129 Tb95 2.362 1_655 S
O129 C140 1.283 . S
O130 Tb95 2.421 1_545 S
O130 C147 1.262 . S
O131 Tb84 2.320 1_455 S
O131 C147 1.260 . S
O132 Tb84 2.552 1_565 S
O132 C140 1.243 . S
O133 Tb84 2.413 . S
O133 C148 1.256 . S
O134 Tb95 2.546 1_545 S
O134 C159 1.251 1_545 S
O135 Tb84 2.362 1_455 S
O135 Tb95 2.610 1_545 S
O135 C151 1.283 . S
O136 Tb84 2.421 1_565 S
O136 C158 1.262 . S
O137 Tb95 2.320 1_655 S
O137 C158 1.260 . S
O138 Tb95 2.552 1_545 S
O138 C151 1.243 . S
O139 Tb95 2.413 . S
O139 C159 1.256 . S
C140 O129 1.283 . S
C140 O132 1.243 . S
C141 C143 1.382 . S
C141 C145 1.393 . S
C141 C148 1.500 . S
C142 C143 1.400 . S
C142 C144 1.384 . S
C143 C141 1.382 . S
C143 C142 1.400 . S
C143 H160 0.930 . S
C144 C142 1.384 . S
C144 C146 1.392 . S
C144 H161 0.931 . S
C145 C141 1.393 . S
C145 C146 1.401 . S
C145 H162 0.930 . S
C146 C144 1.392 . S
C146 C145 1.401 . S
C146 H163 0.930 . S
C147 O130 1.262 . S
C147 O131 1.260 . S
C148 Tb84 2.833 . S
C148 O128 1.251 1_545 S
C148 O133 1.256 . S
C148 C141 1.500 . S
C149 H114 0.929 . S
C149 C127 1.444 . S
C149 C150 1.317 . S
C150 H112 0.930 . S
C150 C118 1.432 . S
C150 C149 1.317 . S
C151 O135 1.283 . S
C151 O138 1.243 . S
C152 C153 1.382 . S
C152 C156 1.393 . S
C152 C159 1.500 . S
C153 C152 1.382 . S
C153 C154 1.400 . S
C153 H164 0.930 . S
C154 C153 1.400 . S
C154 C155 1.384 . S
C155 C154 1.384 . S
C155 C157 1.392 . S
C155 H165 0.931 . S
C156 C152 1.393 . S
C156 C157 1.401 . S
C156 H166 0.930 1_565 S
C157 C155 1.392 . S
C157 C156 1.401 . S
C157 H167 0.930 1_565 S
C158 O136 1.262 . S
C158 O137 1.260 . S
C159 Tb95 2.833 . S
C159 O134 1.251 1_565 S
C159 O139 1.256 . S
C159 C152 1.500 . S
H160 C143 0.930 . S
H161 C144 0.931 . S
H162 C145 0.930 . S
H163 C146 0.930 . S
H164 C153 0.930 . S
H165 C155 0.931 . S
H166 C156 0.930 1_545 S
H167 C157 0.930 1_545 S
Zn168 O174 1.920 . S
Zn168 O180 1.898 . S
Zn168 O183 1.905 . S
Zn169 O177 1.905 . S
Zn169 O178 1.898 . S
Zn169 O186 1.920 . S
Zn170 O173 2.080 . S
Zn170 O176 2.114 . S
Zn170 O179 2.120 . S
Zn170 O181 2.120 . S
Zn170 O182 2.114 . S
Zn170 O185 2.080 . S
C171 O176 1.166 . S
C171 O177 1.182 . S
C172 O178 1.167 . S
C172 O179 1.299 . S
O173 Zn170 2.080 . S
O173 C187 1.305 . S
O174 Zn168 1.920 . S
O174 C187 1.234 . S
C175 O180 1.167 . S
C175 O181 1.299 . S
O176 Zn170 2.114 . S
O176 C171 1.166 . S
O177 Zn169 1.905 . S
O177 C171 1.182 . S
O178 Zn169 1.898 . S
O178 C172 1.167 . S
O179 Zn170 2.120 . S
O179 C172 1.299 . S
O180 Zn168 1.898 . S
O180 C175 1.167 . S
O181 Zn170 2.120 . S
O181 C175 1.299 . S
O182 Zn170 2.114 . S
O182 C184 1.166 . S
O183 Zn168 1.905 . S
O183 C184 1.182 . S
C184 O182 1.166 . S
C184 O183 1.182 . S
O185 Zn170 2.080 . S
O185 C188 1.305 . S
O186 Zn169 1.920 . S
O186 C188 1.234 . S
C187 O173 1.305 . S
C187 O174 1.234 . S
C188 O185 1.305 . S
C188 O186 1.234 . S
Zn189 O195 1.920 . S
Zn189 O201 1.898 . S
Zn189 O204 1.905 . S
Zn190 O198 1.905 . S
Zn190 O199 1.898 . S
Zn190 O207 1.920 . S
Zn191 O194 2.080 . S
Zn191 O197 2.114 . S
Zn191 O200 2.120 . S
Zn191 O202 2.120 . S
Zn191 O203 2.114 . S
Zn191 O206 2.080 . S
C192 O197 1.166 . S
C192 O198 1.182 . S
C193 O199 1.167 . S
C193 O200 1.299 . S
O194 Zn191 2.080 . S
O194 C208 1.305 . S
O195 Zn189 1.920 . S
O195 C208 1.234 . S
C196 O201 1.167 . S
C196 O202 1.299 . S
O197 Zn191 2.114 . S
O197 C192 1.166 . S
O198 Zn190 1.905 . S
O198 C192 1.182 . S
O199 Zn190 1.898 . S
O199 C193 1.167 . S
O200 Zn191 2.120 . S
O200 C193 1.299 . S
O201 Zn189 1.898 . S
O201 C196 1.167 . S
O202 Zn191 2.120 . S
O202 C196 1.299 . S
O203 Zn191 2.114 . S
O203 C205 1.166 . S
O204 Zn189 1.905 . S
O204 C205 1.182 . S
C205 O203 1.166 . S
C205 O204 1.182 . S
O206 Zn191 2.080 . S
O206 C209 1.305 . S
O207 Zn190 1.920 . S
O207 C209 1.234 . S
C208 O194 1.305 . S
C208 O195 1.234 . S
C209 O206 1.305 . S
C209 O207 1.234 . S
C58 C187 1.324 . S
C151 C193 1.570 . S
C74 C184 1.513 . S
C142 C209 1.324 . S
C67 C175 1.570 . S
C192 C158 1.513 . S
C154 C188 1.043 . S
C205 C56 1.658 . S
C172 C147 1.761 . S
C208 C70 1.043 . S
C171 C140 1.658 . S
C196 C63 1.761 . S
