# Generated by pormake.
# Topology pth, (4,4)-cn, num edge types: 1
# Building blocks:
#     Node 0, Type 0, BuildingBlock: AZAVOO_clean_sbu_0, # of connection points: 4
#     Node 1, Type 0, BuildingBlock: AZAVOO_clean_sbu_0, # of connection points: 4
#     Node 2, Type 0, BuildingBlock: AZAVOO_clean_sbu_0, # of connection points: 4
#     Node 3, Type 1, BuildingBlock: NAWXER_clean_sbu_0, # of connection points: 4
#     Node 4, Type 1, BuildingBlock: NAWXER_clean_sbu_0, # of connection points: 4
#     Node 5, Type 1, BuildingBlock: NAWXER_clean_sbu_0, # of connection points: 4
#     Edge 6, Type (0, 1), BuildingBlock: EYOCIG_clean_linker_4, # of connection points: 2
#     Edge 7, Type (0, 1), BuildingBlock: EYOCIG_clean_linker_4, # of connection points: 2
#     Edge 8, Type (0, 1), BuildingBlock: EYOCIG_clean_linker_4, # of connection points: 2
#     Edge 9, Type (0, 1), BuildingBlock: EYOCIG_clean_linker_4, # of connection points: 2
#     Edge 10, Type (0, 1), BuildingBlock: EYOCIG_clean_linker_4, # of connection points: 2
#     Edge 11, Type (0, 1), BuildingBlock: EYOCIG_clean_linker_4, # of connection points: 2
#     Edge 12, Type (0, 1), BuildingBlock: EYOCIG_clean_linker_4, # of connection points: 2
#     Edge 13, Type (0, 1), BuildingBlock: EYOCIG_clean_linker_4, # of connection points: 2
#     Edge 14, Type (0, 1), BuildingBlock: EYOCIG_clean_linker_4, # of connection points: 2
#     Edge 15, Type (0, 1), BuildingBlock: EYOCIG_clean_linker_4, # of connection points: 2
#     Edge 16, Type (0, 1), BuildingBlock: EYOCIG_clean_linker_4, # of connection points: 2
#     Edge 17, Type (0, 1), BuildingBlock: EYOCIG_clean_linker_4, # of connection points: 2
# Relax obj value: 0.080
# Max RMSD: 0.222
# Mean RMSD: 0.117
data_MOF--net-pth--node1-AZAVOO_clean_sbu_0--node2-NAWXER_clean_sbu_0--edge1-EYOCIG_clean_linker_4
_symmetry_space_group_name_H-M    P1
_symmetry_Int_Tables_number       1
_symmetry_cell_setting            triclinic
loop_
_symmetry_equiv_pos_as_xyz
'x, y, z'
_cell_length_a     18.140524
_cell_length_b     18.692762
_cell_length_c     47.489679
_cell_angle_alpha  90.970583
_cell_angle_beta   93.127996
_cell_angle_gamma 122.88402
loop_
_atom_site_label
_atom_site_type_symbol
_atom_site_fract_x
_atom_site_fract_y
_atom_site_fract_z
_atom_type_partial_charge
Mg0 Mg 0.12771 0.09068 0.04708 0.0
O1 O 0.00653 0.99145 0.01948 0.0
O2 O 0.96142 0.05906 -0.00746 0.0
Mg3 Mg 0.06074 0.20355 0.00049 0.0
C4 C 0.95324 0.99089 0.00088 0.0
C5 C 0.15218 0.97135 0.08975 0.0
O6 O 0.23588 0.03272 0.09281 0.0
O7 O 0.05126 0.12527 0.07475 0.0
O8 O 0.0312 0.20915 0.04648 0.0
O9 O 0.21604 0.10188 0.01322 0.0
O10 O 0.16386 0.18378 0.01737 0.0
C11 C 0.02917 0.17865 0.07046 0.0
C12 C 0.21035 0.16378 0.00419 0.0
O13 O 0.09876 0.9793 0.07393 0.0
Mg14 Mg 0.9578 0.01444 0.36796 0.0
O15 O 0.07835 0.04212 0.3957 0.0
O16 O 0.12764 0.16123 0.4222 0.0
Mg17 Mg 0.03094 0.20399 0.41426 0.0
C18 C 0.13329 0.0992 0.41409 0.0
C19 C 0.92954 0.86333 0.32496 0.0
O20 O 0.84699 0.83947 0.32066 0.0
O21 O 0.03628 0.12665 0.33993 0.0
O22 O 0.05971 0.23568 0.36812 0.0
O23 O 0.86708 0.93814 0.4019 0.0
O24 O 0.92441 0.07534 0.39743 0.0
C25 C 0.06016 0.20435 0.3441 0.0
C26 C 0.87519 0.00824 0.41059 0.0
O27 O 0.9828 0.92748 0.34139 0.0
Mg28 Mg 0.00379 0.99042 0.70141 0.0
O29 O 0.10592 0.10719 0.72892 0.0
O30 O 0.0355 0.14786 0.75525 0.0
Mg31 Mg 0.88692 0.04965 0.74735 0.0
C32 C 0.10602 0.15773 0.74712 0.0
C33 C 0.12536 0.97094 0.65936 0.0
O34 O 0.0625 0.88972 0.65617 0.0
O35 O 0.96712 0.06609 0.67374 0.0
O36 O 0.88044 0.08243 0.70147 0.0
O37 O -0.00485 0.90309 0.7351 0.0
O38 O 0.90895 0.95239 0.73066 0.0
C39 C 0.91214 0.08705 0.67776 0.0
C40 C 0.93097 0.9069 0.74386 0.0
O41 O 0.11737 0.02136 0.67507 0.0
C42 C 0.03121 0.63738 0.24647 0.0
C43 C 0.04038 0.44193 0.16901 0.0
O44 O 0.10545 0.65373 0.23975 0.0
Zn45 Zn 0.13519 0.59424 0.21058 0.0
O46 O 0.95998 0.57562 0.23441 0.0
Zn47 Zn 0.95 0.49473 0.20435 0.0
O48 O 0.97495 0.43217 0.23433 0.0
O49 O 0.12047 0.51189 0.23917 0.0
O50 O 0.96699 0.42771 0.1756 0.0
O51 O 0.11256 0.50436 0.1805 0.0
O52 O 0.12302 0.6615 0.18072 0.0
O53 O 0.97755 0.58344 0.1754 0.0
C54 C 0.04781 0.44821 0.24576 0.0
C55 C 0.05119 0.64601 0.16877 0.0
C56 C 0.64387 0.08029 0.57549 0.0
C57 C 0.43034 0.07855 0.49657 0.0
O58 O 0.57839 0.00926 0.56524 0.0
Zn59 Zn 0.48316 0.98298 0.53465 0.0
O60 O 0.65877 0.15039 0.56678 0.0
Zn61 Zn 0.58509 0.1594 0.53642 0.0
O62 O 0.50227 0.13835 0.56696 0.0
O63 O 0.42103 -0.00272 0.56526 0.0
O64 O 0.49682 0.14922 0.50657 0.0
O65 O 0.41589 0.00838 0.50518 0.0
O66 O 0.56512 0.98882 0.50708 0.0
O67 O 0.64779 0.12973 0.50859 0.0
C68 C 0.44067 0.06878 0.57588 0.0
C69 C 0.63111 0.05767 0.49948 0.0
C70 C 0.44856 0.44883 0.91089 0.0
C71 C 0.64925 0.65998 0.83692 0.0
O72 O 0.43473 0.50517 0.9026 0.0
Zn73 Zn 0.50024 0.59621 0.87435 0.0
O74 O 0.51031 0.44411 0.90182 0.0
Zn75 Zn 0.59524 0.5167 0.87383 0.0
O76 O 0.66788 0.60793 0.9048 0.0
O77 O 0.59337 0.67014 0.90519 0.0
O78 O 0.66148 0.60326 0.84567 0.0
O79 O 0.58841 0.66697 0.84575 0.0
O80 O 0.42674 0.50736 0.84315 0.0
O81 O 0.50109 0.44496 0.84279 0.0
C82 C 0.65678 0.66466 0.91468 0.0
C83 C 0.43809 0.45091 0.83318 0.0
C84 C 0.02365 0.26859 0.11254 0.0
C85 C 0.02628 0.22429 0.09445 0.0
C86 C 0.03292 0.33038 0.13241 0.0
C87 C 0.04039 0.38334 0.1492 0.0
C88 C 0.78497 0.02442 0.44917 0.0
C89 C 0.82361 0.01119 0.43201 0.0
C90 C 0.73578 0.04194 0.46695 0.0
C91 C 0.69044 0.05305 0.48178 0.0
C92 C 0.82775 0.81532 0.78323 0.0
C93 C 0.87818 0.85513 0.76563 0.0
C94 C 0.76283 0.76501 0.80189 0.0
C95 C 0.70876 0.71934 0.8178 0.0
C96 C 0.09336 0.82901 0.1162 0.0
C97 C 0.12002 0.89391 0.1041 0.0
C98 C 0.06761 0.75756 0.13239 0.0
C99 C 0.05424 0.70363 0.14863 0.0
C100 C 0.25527 0.08384 0.44108 0.0
C101 C 0.19884 0.08875 0.42829 0.0
C102 C 0.31762 0.07949 0.45898 0.0
C103 C 0.36845 0.07801 0.47612 0.0
C104 C 0.25387 0.27985 0.77425 0.0
C105 C 0.18834 0.22325 0.76118 0.0
C106 C 0.32339 0.34147 0.79313 0.0
C107 C 0.37656 0.39077 0.81141 0.0
C108 C 0.82095 0.09716 0.63495 0.0
C109 C 0.86555 0.09251 0.65355 0.0
C110 C 0.7583 0.0894 0.61421 0.0
C111 C 0.70433 0.08213 0.59652 0.0
C112 C 0.83103 0.84714 -0.02687 0.0
C113 C 0.88764 0.9112 -0.01363 0.0
C114 C 0.76916 0.77861 0.95429 0.0
C115 C 0.7188 0.72581 0.93621 0.0
C116 C 0.98702 0.77817 0.29937 0.0
C117 C 0.96088 0.8171 0.31107 0.0
C118 C 0.01284 0.73238 0.28327 0.0
C119 C 0.0268 0.69213 0.26682 0.0
C120 C 0.26931 0.03209 0.63238 0.0
C121 C 0.20364 0.00433 0.64472 0.0
C122 C 0.33934 0.05817 0.61512 0.0
C123 C 0.38938 0.06984 0.5975 0.0
C124 C 0.2994 0.26591 0.96427 0.0
C125 C 0.26108 0.21585 -0.01793 0.0
C126 C 0.34768 0.33101 0.94555 0.0
C127 C 0.39149 0.38635 0.92981 0.0
C128 C 0.06669 0.29748 0.30207 0.0
C129 C 0.06351 0.25132 0.32007 0.0
C130 C 0.05757 0.34831 0.28229 0.0
C131 C 0.04943 0.39181 0.26554 0.0
loop_
_geom_bond_atom_site_label_1
_geom_bond_atom_site_label_2
_geom_bond_distance
_geom_bond_site_symmetry_2
_ccdc_geom_bond_type
Mg0 O1 2.028 1_545 S
Mg0 O7 1.986 . S
Mg0 O9 2.114 . S
Mg0 O10 2.251 . S
Mg0 O13 2.010 . S
O1 Mg0 2.028 1_565 S
O1 C4 1.250 1_455 S
O2 Mg3 2.028 1_655 S
O2 C4 1.248 1_545 S
Mg3 O2 2.028 1_455 S
Mg3 O8 2.032 . S
Mg3 O10 2.079 . S
C4 O1 1.250 1_655 S
C4 O2 1.248 1_565 S
C5 O6 1.264 . S
C5 O13 1.249 1_565 S
O6 C5 1.264 . S
O7 Mg0 1.986 . S
O7 C11 1.246 . S
O8 Mg3 2.032 . S
O8 C11 1.259 . S
O9 Mg0 2.114 . S
O9 C12 1.252 . S
O10 Mg0 2.251 . S
O10 Mg3 2.079 . S
O10 C12 1.273 . S
C11 O7 1.246 . S
C11 O8 1.259 . S
C12 O9 1.252 . S
C12 O10 1.273 . S
O13 Mg0 2.010 . S
O13 C5 1.249 1_545 S
Mg14 O15 2.028 1_655 S
Mg14 O21 1.986 1_655 S
Mg14 O23 2.114 1_545 S
Mg14 O24 2.251 . S
Mg14 O27 2.010 1_545 S
O15 Mg14 2.028 1_455 S
O15 C18 1.250 . S
O16 Mg17 2.028 . S
O16 C18 1.248 . S
Mg17 O16 2.028 . S
Mg17 O22 2.032 . S
Mg17 O24 2.079 1_455 S
C18 O15 1.250 . S
C18 O16 1.248 . S
C19 O20 1.264 . S
C19 O27 1.249 . S
O20 C19 1.264 . S
O21 Mg14 1.986 1_455 S
O21 C25 1.246 . S
O22 Mg17 2.032 . S
O22 C25 1.259 . S
O23 Mg14 2.114 1_565 S
O23 C26 1.252 1_565 S
O24 Mg14 2.251 . S
O24 Mg17 2.079 1_655 S
O24 C26 1.273 . S
C25 O21 1.246 . S
C25 O22 1.259 . S
C26 O23 1.252 1_545 S
C26 O24 1.273 . S
O27 Mg14 2.010 1_565 S
O27 C19 1.249 . S
Mg28 O29 2.028 . S
Mg28 O35 1.986 1_455 S
Mg28 O37 2.114 1_545 S
Mg28 O38 2.251 1_445 S
Mg28 O41 2.010 1_545 S
O29 Mg28 2.028 . S
O29 C32 1.250 . S
O30 Mg31 2.028 1_455 S
O30 C32 1.248 . S
Mg31 O30 2.028 1_655 S
Mg31 O36 2.032 . S
Mg31 O38 2.079 1_545 S
C32 O29 1.250 . S
C32 O30 1.248 . S
C33 O34 1.264 . S
C33 O41 1.249 . S
O34 C33 1.264 . S
O35 Mg28 1.986 1_655 S
O35 C39 1.246 . S
O36 Mg31 2.032 . S
O36 C39 1.259 . S
O37 Mg28 2.114 1_565 S
O37 C40 1.252 1_455 S
O38 Mg28 2.251 1_665 S
O38 Mg31 2.079 1_565 S
O38 C40 1.273 . S
C39 O35 1.246 . S
C39 O36 1.259 . S
C40 O37 1.252 1_655 S
C40 O38 1.273 . S
O41 Mg28 2.010 1_565 S
O41 C33 1.249 . S
C42 O44 1.247 . S
C42 O46 1.258 1_455 S
C43 O50 1.247 1_455 S
C43 O51 1.258 . S
O44 C42 1.247 . S
O44 Zn45 2.028 . S
Zn45 O44 2.028 . S
Zn45 O49 2.035 . S
Zn45 O51 2.035 . S
Zn45 O52 2.028 . S
O46 C42 1.258 1_655 S
O46 Zn47 2.035 . S
Zn47 O46 2.035 . S
Zn47 O48 2.028 . S
Zn47 O50 2.028 . S
Zn47 O53 2.035 . S
O48 Zn47 2.028 . S
O48 C54 1.247 1_655 S
O49 Zn45 2.035 . S
O49 C54 1.258 . S
O50 C43 1.247 1_655 S
O50 Zn47 2.028 . S
O51 C43 1.258 . S
O51 Zn45 2.035 . S
O52 Zn45 2.028 . S
O52 C55 1.247 . S
O53 Zn47 2.035 . S
O53 C55 1.258 1_655 S
C54 O48 1.247 1_455 S
C54 O49 1.258 . S
C55 O52 1.247 . S
C55 O53 1.258 1_455 S
C56 O58 1.247 . S
C56 O60 1.258 . S
C57 O64 1.247 . S
C57 O65 1.258 . S
O58 C56 1.247 . S
O58 Zn59 2.028 1_545 S
Zn59 O58 2.028 1_565 S
Zn59 O63 2.035 1_565 S
Zn59 O65 2.035 1_565 S
Zn59 O66 2.028 1_565 S
O60 C56 1.258 . S
O60 Zn61 2.035 . S
Zn61 O60 2.035 . S
Zn61 O62 2.028 . S
Zn61 O64 2.028 . S
Zn61 O67 2.035 . S
O62 Zn61 2.028 . S
O62 C68 1.247 . S
O63 Zn59 2.035 1_545 S
O63 C68 1.258 . S
O64 C57 1.247 . S
O64 Zn61 2.028 . S
O65 C57 1.258 . S
O65 Zn59 2.035 1_545 S
O66 Zn59 2.028 1_545 S
O66 C69 1.247 . S
O67 Zn61 2.035 . S
O67 C69 1.258 . S
C68 O62 1.247 . S
C68 O63 1.258 . S
C69 O66 1.247 . S
C69 O67 1.258 . S
C70 O72 1.247 . S
C70 O74 1.258 . S
C71 O78 1.247 . S
C71 O79 1.258 . S
O72 C70 1.247 . S
O72 Zn73 2.028 . S
Zn73 O72 2.028 . S
Zn73 O77 2.035 . S
Zn73 O79 2.035 . S
Zn73 O80 2.028 . S
O74 C70 1.258 . S
O74 Zn75 2.035 . S
Zn75 O74 2.035 . S
Zn75 O76 2.028 . S
Zn75 O78 2.028 . S
Zn75 O81 2.035 . S
O76 Zn75 2.028 . S
O76 C82 1.247 . S
O77 Zn73 2.035 . S
O77 C82 1.258 . S
O78 C71 1.247 . S
O78 Zn75 2.028 . S
O79 C71 1.258 . S
O79 Zn73 2.035 . S
O80 Zn73 2.028 . S
O80 C83 1.247 . S
O81 Zn75 2.035 . S
O81 C83 1.258 . S
C82 O76 1.247 . S
C82 O77 1.258 . S
C83 O80 1.247 . S
C83 O81 1.258 . S
C84 C85 1.170 . S
C84 C86 1.380 . S
C85 C84 1.170 . S
C86 C84 1.380 . S
C86 C87 1.170 . S
C87 C86 1.170 . S
C88 C89 1.170 . S
C88 C90 1.380 . S
C89 C88 1.170 . S
C90 C88 1.380 . S
C90 C91 1.170 . S
C91 C90 1.170 . S
C92 C93 1.170 . S
C92 C94 1.380 . S
C93 C92 1.170 . S
C94 C92 1.380 . S
C94 C95 1.170 . S
C95 C94 1.170 . S
C96 C97 1.170 . S
C96 C98 1.380 . S
C97 C96 1.170 . S
C98 C96 1.380 . S
C98 C99 1.170 . S
C99 C98 1.170 . S
C100 C101 1.170 . S
C100 C102 1.380 . S
C101 C100 1.170 . S
C102 C100 1.380 . S
C102 C103 1.170 . S
C103 C102 1.170 . S
C104 C105 1.170 . S
C104 C106 1.380 . S
C105 C104 1.170 . S
C106 C104 1.380 . S
C106 C107 1.170 . S
C107 C106 1.170 . S
C108 C109 1.170 . S
C108 C110 1.380 . S
C109 C108 1.170 . S
C110 C108 1.380 . S
C110 C111 1.170 . S
C111 C110 1.170 . S
C112 C113 1.171 . S
C112 C114 1.380 1_554 S
C113 C112 1.171 . S
C114 C112 1.380 1_556 S
C114 C115 1.170 . S
C115 C114 1.170 . S
C116 C117 1.170 . S
C116 C118 1.380 1_655 S
C117 C116 1.170 . S
C118 C116 1.380 1_455 S
C118 C119 1.170 . S
C119 C118 1.170 . S
C120 C121 1.170 . S
C120 C122 1.380 . S
C121 C120 1.170 . S
C122 C120 1.380 . S
C122 C123 1.170 . S
C123 C122 1.170 . S
C124 C125 1.170 1_556 S
C124 C126 1.380 . S
C125 C124 1.170 1_554 S
C126 C124 1.380 . S
C126 C127 1.170 . S
C127 C126 1.170 . S
C128 C129 1.170 . S
C128 C130 1.380 . S
C129 C128 1.170 . S
C130 C128 1.380 . S
C130 C131 1.170 . S
C131 C130 1.170 . S
C87 C43 1.444 . S
C85 C11 1.412 . S
C89 C26 1.533 . S
C91 C69 1.536 . S
C93 C40 1.422 . S
C95 C71 1.447 . S
C97 C5 1.235 . S
C99 C55 1.427 . S
C103 C57 1.535 . S
C101 C18 1.522 . S
C105 C32 1.426 . S
C107 C83 1.434 . S
C111 C56 1.340 . S
C109 C39 1.317 . S
C113 C4 1.437 . S
C115 C82 1.446 . S
C119 C42 1.441 . S
C117 C19 1.293 . S
C123 C68 1.365 . S
C121 C33 1.187 1_545 S
C127 C70 1.451 . S
C125 C12 1.451 . S
C129 C25 1.442 . S
C131 C54 1.445 . S
