# Generated by pormake.
# Topology scu, (8,4)-cn, num edge types: 1
# Building blocks:
#     Node 0, Type 0, BuildingBlock: GIZVER_clean_sbu_0, # of connection points: 8
#     Node 1, Type 1, BuildingBlock: NAWXER_clean_sbu_0, # of connection points: 4
#     Node 2, Type 1, BuildingBlock: NAWXER_clean_sbu_0, # of connection points: 4
#     Edge 3, Type (0, 1), BuildingBlock: XIVTED_clean_linker_0, # of connection points: 2
#     Edge 4, Type (0, 1), BuildingBlock: XIVTED_clean_linker_0, # of connection points: 2
#     Edge 5, Type (0, 1), BuildingBlock: XIVTED_clean_linker_0, # of connection points: 2
#     Edge 6, Type (0, 1), BuildingBlock: XIVTED_clean_linker_0, # of connection points: 2
#     Edge 7, Type (0, 1), BuildingBlock: XIVTED_clean_linker_0, # of connection points: 2
#     Edge 8, Type (0, 1), BuildingBlock: XIVTED_clean_linker_0, # of connection points: 2
#     Edge 9, Type (0, 1), BuildingBlock: XIVTED_clean_linker_0, # of connection points: 2
#     Edge 10, Type (0, 1), BuildingBlock: XIVTED_clean_linker_0, # of connection points: 2
# Relax obj value: 0.017
# Max RMSD: 0.079
# Mean RMSD: 0.059
data_MOF--net-scu--node1-GIZVER_clean_sbu_0--node2-NAWXER_clean_sbu_0--edge1-XIVTED_clean_linker_0
_symmetry_space_group_name_H-M    P1
_symmetry_Int_Tables_number       1
_symmetry_cell_setting            triclinic
loop_
_symmetry_equiv_pos_as_xyz
'x, y, z'
_cell_length_a     23.856789
_cell_length_b     24.243684
_cell_length_c     21.770836
_cell_angle_alpha  99.271656
_cell_angle_beta   81.387942
_cell_angle_gamma 115.04443
loop_
_atom_site_label
_atom_site_type_symbol
_atom_site_fract_x
_atom_site_fract_y
_atom_site_fract_z
_atom_type_partial_charge
Co0 Co 0.0246 0.96395 0.15099 0.0
Co1 Co 0.12658 0.04932 0.11341 0.0
Co2 Co 0.01542 0.03345 0.03436 0.0
O3 O 0.06042 0.99629 0.07208 0.0
H4 H 0.07256 0.96825 0.04232 0.0
O5 O 0.96656 0.06648 0.99741 0.0
Co6 Co 0.98034 0.08653 0.91361 0.0
Co7 Co 0.89388 0.99888 0.97376 0.0
H8 H 0.95579 0.09559 1.02692 0.0
O9 O 0.18896 0.02589 0.11951 0.0
O10 O 0.10453 1.01439 0.18803 0.0
O11 O 0.13482 0.13185 0.12862 0.0
O12 O 0.04581 0.11448 0.09076 0.0
O13 O 0.08744 0.06777 0.97167 0.0
O14 O 0.98856 0.11004 0.83775 0.0
O15 O 0.93777 0.13444 0.92633 0.0
O16 O 0.03109 0.04143 0.89022 0.0
O17 O 0.98932 0.95457 0.97749 0.0
O18 O 0.88847 0.91615 0.96913 0.0
O19 O 0.90311 1.01332 0.89146 0.0
O20 O 0.82359 1.00887 0.96422 0.0
C21 C 0.01235 0.88825 0.19085 0.0
C22 C 0.94753 0.02005 0.15317 0.0
C23 C 0.09302 0.14898 0.12121 0.0
C24 C 0.15663 1.00798 0.17177 0.0
C25 C 0.95534 0.13891 0.86693 0.0
C26 C 0.08277 0.0565 0.91281 0.0
C27 C 0.93944 0.91039 0.96105 0.0
C28 C 0.84705 1.0107 0.90639 0.0
O29 O 0.99227 0.92839 0.22009 0.0
O30 O 0.04413 0.89776 0.13623 0.0
O31 O 0.94205 0.99995 0.09577 0.0
O32 O 0.99569 0.02686 0.17734 0.0
C33 C -0.00036 0.597 0.62984 0.0
C34 C 0.03952 0.46155 0.4514 0.0
O35 O 0.05265 0.59758 0.6087 0.0
Zn36 Zn 0.02411 0.53006 0.54231 0.0
O37 O 0.95116 0.55836 0.60393 0.0
Zn38 Zn 0.92573 0.48676 0.52922 0.0
O39 O 0.87349 0.41409 0.57215 0.0
O40 O 0.97108 0.4549 0.59494 0.0
O41 O 0.98269 0.45367 0.46414 0.0
O42 O 0.08042 0.50036 0.48616 0.0
O43 O 0.99523 0.5688 0.47841 0.0
O44 O 0.89377 0.52038 0.47351 0.0
C45 C 0.91537 0.41447 0.60246 0.0
C46 C 0.94583 0.56173 0.45567 0.0
C47 C 0.56632 0.98195 0.59334 0.0
C48 C 0.4209 0.96214 0.44683 0.0
O49 O 0.53221 0.93251 0.5629 0.0
Zn50 Zn 0.49538 0.96899 0.51594 0.0
O51 O 0.56699 0.03295 0.58395 0.0
Zn52 Zn 0.5266 0.06722 0.52786 0.0
O53 O 0.48549 0.10654 0.59174 0.0
O54 O 0.44328 1.00533 0.58693 0.0
O55 O 0.45315 0.01758 0.46816 0.0
O56 O 0.43149 0.9185 0.46046 0.0
O57 O 0.57034 1.01552 0.45175 0.0
O58 O 0.59781 0.11516 0.47318 0.0
C59 C 0.44347 0.05735 0.61088 0.0
C60 C 0.60566 0.07031 0.44011 0.0
H61 H 0.1855 0.23507 0.18985 0.0
H62 H 0.96863 0.40186 0.35532 0.0
H63 H 0.00342 0.19428 0.13705 0.0
H64 H 0.1456 0.43944 0.41865 0.0
H65 H 0.98821 0.33591 0.26659 0.0
H66 H 0.17922 0.31982 0.26382 0.0
C67 C 0.14456 0.24443 0.19297 0.0
C68 C 0.09457 0.20686 0.15741 0.0
C69 C 0.02308 0.35865 0.29952 0.0
C70 C 0.08713 0.30382 0.24263 0.0
C71 C 0.01189 0.39634 0.35055 0.0
C72 C 0.05518 0.42557 0.39521 0.0
C73 C 0.07791 0.34939 0.2928 0.0
C74 C 0.11081 0.41745 0.38561 0.0
C75 C 0.14104 0.29282 0.23547 0.0
C76 C 0.04303 0.22167 0.16343 0.0
N77 N 0.12032 0.37948 0.33568 0.0
N78 N 0.04043 0.26852 0.20569 0.0
H79 H 0.83217 0.99511 0.12134 0.0
H80 H 0.72678 0.15468 0.44126 0.0
H81 H 0.95356 0.08697 0.26859 0.0
H82 H 0.60075 1.00361 0.32738 0.0
H83 H 0.81412 0.15246 0.3659 0.0
H84 H 0.75084 0.02003 0.18483 0.0
C85 C 0.84189 0.02083 0.1669 0.0
C86 C 0.89941 0.03805 0.19016 0.0
C87 C 0.76715 0.12062 0.35705 0.0
C88 C 0.80658 0.06729 0.26274 0.0
C89 C 0.71745 0.12231 0.39954 0.0
C90 C 0.6568 0.07917 0.39028 0.0
C91 C 0.75552 0.07622 0.30479 0.0
C92 C 0.647 0.03746 0.33616 0.0
C93 C 0.79542 0.03505 0.20307 0.0
C94 C 0.90949 0.0719 0.24932 0.0
N95 N 0.69582 0.03689 0.29556 0.0
N96 N 0.86337 0.08523 0.28378 0.0
H97 H 0.91299 0.83314 0.27178 0.0
H98 H 0.04893 0.62207 0.38049 0.0
H99 H 0.0798 0.81801 0.17965 0.0
H100 H 0.85654 0.59298 0.42287 0.0
H101 H 0.06211 0.69476 0.30829 0.0
H102 H 0.89242 0.74684 0.32884 0.0
C103 C 0.9452 0.81133 0.26332 0.0
C104 C -0.00162 0.83289 0.22109 0.0
C105 C 0.01686 0.67211 0.33284 0.0
C106 C 0.97527 0.73419 0.28694 0.0
C107 C 0.00926 0.6308 0.3744 0.0
C108 C 0.95158 0.60181 0.40829 0.0
C109 C 0.96671 0.68555 0.3257 0.0
C110 C 0.90178 0.61437 0.39784 0.0
C111 C 0.93319 0.76184 0.29573 0.0
C112 C 0.03819 0.80263 0.21161 0.0
N113 N 0.91071 0.65599 0.35806 0.0
N114 N 0.02625 0.75522 0.24497 0.0
H115 H 0.12719 1.00151 0.29785 0.0
H116 H 0.38843 0.88741 0.33713 0.0
H117 H 0.24268 0.95925 0.14198 0.0
H118 H 0.33694 1.01166 0.47379 0.0
H119 H 0.31091 0.88295 0.27088 0.0
H120 H 0.17987 0.97382 0.36851 0.0
C121 C 0.16296 0.98561 0.27844 0.0
C122 C 0.18172 0.98408 0.21423 0.0
C123 C 0.31604 0.91026 0.31592 0.0
C124 C 0.24112 0.95156 0.29432 0.0
C125 C 0.35987 0.91258 0.3536 0.0
C126 C 0.36923 0.95054 0.41027 0.0
C127 C 0.28085 0.94505 0.33612 0.0
C128 C 0.33146 0.98254 0.42982 0.0
C129 C 0.19294 0.96989 0.31869 0.0
C130 C 0.22782 0.96242 0.19141 0.0
N131 N 0.28902 0.97924 0.39273 0.0
N132 N 0.25632 0.9474 0.23148 0.0
H133 H 0.84815 0.81124 0.9018 0.0
H134 H 0.08954 0.68767 0.69947 0.0
H135 H 0.04328 0.88698 0.92962 0.0
H136 H 0.89182 0.60427 0.68346 0.0
H137 H 0.07352 0.75888 0.78681 0.0
H138 H 0.86259 0.73135 0.82562 0.0
C139 C 0.89379 0.81063 0.89267 0.0
C140 C 0.94454 0.85624 0.92205 0.0
C141 C 0.03367 0.72472 0.76427 0.0
C142 C 0.96172 0.76538 0.83401 0.0
C143 C 0.04286 0.68418 0.71434 0.0
C144 C 0.99209 0.64007 0.68376 0.0
C145 C 0.97333 0.72119 0.78359 0.0
C146 C 0.93254 0.63761 0.70526 0.0
C147 C 0.90214 0.76514 0.84887 0.0
C148 C 0.00272 0.85303 0.90802 0.0
N149 N 0.92491 0.67763 0.75349 0.0
N150 N 0.0098 0.80886 0.86468 0.0
H151 H 0.20564 0.12208 0.93155 0.0
H152 H 0.32878 0.96582 0.62583 0.0
H153 H 0.08408 0.9937 0.7971 0.0
H154 H 0.44004 0.1506 0.70052 0.0
H155 H 0.24186 0.9664 0.70025 0.0
H156 H 0.29563 0.12455 0.85853 0.0
C157 C 0.19794 0.09426 0.88682 0.0
C158 C 0.13741 0.05767 0.87018 0.0
C159 C 0.28528 1.00681 0.70039 0.0
C160 C 0.2396 0.05989 0.78738 0.0
C161 C 0.33508 1.00647 0.65824 0.0
C162 C 0.39178 0.05829 0.65712 0.0
C163 C 0.29232 0.05891 0.74263 0.0
C164 C 0.39701 0.10983 0.69981 0.0
C165 C 0.24917 0.09604 0.84522 0.0
C166 C 0.12994 0.02279 0.8116 0.0
N167 N 0.34788 0.10873 0.74137 0.0
N168 N 0.18047 0.02438 0.77251 0.0
H169 H 0.92916 0.23836 0.91195 0.0
H170 H 0.85665 0.28907 0.58289 0.0
H171 H 0.9374 0.12064 0.74291 0.0
H172 H 0.94755 0.43789 0.72079 0.0
H173 H 0.85504 0.21626 0.65111 0.0
H174 H 0.90529 0.30164 0.85133 0.0
C175 C 0.92528 0.22549 0.86225 0.0
C176 C 0.9363 0.17489 0.83215 0.0
C177 C 0.87422 0.26483 0.66672 0.0
C178 C 0.90778 0.24605 0.76306 0.0
C179 C 0.87459 0.30616 0.62822 0.0
C180 C 0.90216 0.36931 0.64656 0.0
C181 C 0.9004 0.28709 0.72421 0.0
C182 C 0.92588 0.38942 0.70516 0.0
C183 C 0.91176 0.26158 0.82777 0.0
C184 C 0.93038 0.16002 0.76767 0.0
N185 N 0.92447 0.3485 0.74193 0.0
N186 N 0.91653 0.19545 0.7352 0.0
H187 H 0.85662 0.97085 0.78149 0.0
H188 H 0.59617 0.06063 0.69819 0.0
H189 H 0.75038 0.04448 0.92109 0.0
H190 H 0.62593 0.90646 0.59455 0.0
H191 H 0.66649 0.0684 0.77288 0.0
H192 H 0.78669 0.96069 0.70387 0.0
C193 C 0.81894 0.98526 0.79562 0.0
C194 C 0.80888 1.00818 0.85777 0.0
C195 C 0.65744 0.03266 0.734 0.0
C196 C 0.72973 0.99711 0.76979 0.0
C197 C 0.61742 0.0282 0.69135 0.0
C198 C 0.60515 0.98265 0.64036 0.0
C199 C 0.68654 0.9921 0.72506 0.0
C200 C 0.63385 0.94181 0.63369 0.0
C201 C 0.77894 0.97898 0.75158 0.0
C202 C 0.75942 0.02609 0.87379 0.0
N203 N 0.67394 0.94785 0.67538 0.0
N204 N 0.7219 0.02048 0.83002 0.0
loop_
_geom_bond_atom_site_label_1
_geom_bond_atom_site_label_2
_geom_bond_distance
_geom_bond_site_symmetry_2
_ccdc_geom_bond_type
Co0 O3 2.042 . S
Co0 O10 2.264 1_565 S
Co0 O29 2.286 1_455 S
Co0 O30 2.069 . S
Co0 O32 2.015 1_455 S
Co1 O3 2.122 1_545 S
Co1 O9 2.073 . S
Co1 O10 2.327 . S
Co1 O11 1.976 . S
Co2 O3 2.085 1_545 S
Co2 O5 2.088 1_454 S
Co2 O12 2.117 . S
Co2 O13 2.145 1_554 S
Co2 O17 2.106 1_444 S
Co2 O31 2.142 1_445 S
O3 Co0 2.042 . S
O3 Co1 2.122 1_565 S
O3 Co2 2.085 1_565 S
O3 H4 0.980 . S
H4 O3 0.980 . S
O5 Co2 2.088 1_656 S
O5 Co6 2.045 . S
O5 Co7 2.122 1_545 S
O5 H8 0.980 . S
Co6 O5 2.045 . S
Co6 O14 2.287 1_655 S
Co6 O15 2.080 . S
Co6 O16 2.002 1_655 S
Co6 O19 2.273 1_545 S
Co7 O5 2.122 1_565 S
Co7 O18 1.976 . S
Co7 O19 2.327 . S
Co7 O20 2.073 . S
H8 O5 0.980 . S
O9 Co1 2.073 . S
O9 C24 1.245 1_545 S
O10 Co0 2.264 1_545 S
O10 Co1 2.327 . S
O10 C24 1.257 1_545 S
O11 Co1 1.976 . S
O11 C23 1.251 . S
O12 Co2 2.117 . S
O12 C23 1.274 . S
O13 Co2 2.145 1_556 S
O13 C26 1.246 . S
O14 Co6 2.287 1_455 S
O14 C25 1.259 1_455 S
O15 Co6 2.080 . S
O15 C25 1.289 . S
O16 Co6 2.002 1_455 S
O16 C26 1.257 . S
O17 Co2 2.106 1_666 S
O17 C27 1.274 . S
O18 Co7 1.976 . S
O18 C27 1.251 . S
O19 Co6 2.273 1_565 S
O19 Co7 2.327 . S
O19 C28 1.257 1_565 S
O20 Co7 2.073 . S
O20 C28 1.245 1_565 S
C21 O29 1.259 1_455 S
C21 O30 1.289 . S
C22 O31 1.246 . S
C22 O32 1.257 . S
C23 O11 1.251 . S
C23 O12 1.274 . S
C24 O9 1.245 1_565 S
C24 O10 1.257 1_565 S
C25 O14 1.259 1_655 S
C25 O15 1.289 . S
C26 O13 1.246 . S
C26 O16 1.257 . S
C27 O17 1.274 . S
C27 O18 1.251 . S
C28 O19 1.257 1_545 S
C28 O20 1.245 1_545 S
O29 Co0 2.286 1_655 S
O29 C21 1.259 1_655 S
O30 Co0 2.069 . S
O30 C21 1.289 . S
O31 Co2 2.142 1_665 S
O31 C22 1.246 . S
O32 Co0 2.015 1_655 S
O32 C22 1.257 . S
C33 O35 1.254 . S
C33 O37 1.253 1_455 S
C34 O41 1.245 . S
C34 O42 1.259 1_655 S
O35 C33 1.254 . S
O35 Zn36 2.028 . S
Zn36 O35 2.028 . S
Zn36 O40 2.035 . S
Zn36 O42 2.035 . S
Zn36 O43 2.028 . S
O37 C33 1.253 1_655 S
O37 Zn38 2.035 . S
Zn38 O37 2.035 . S
Zn38 O39 2.028 . S
Zn38 O41 2.028 . S
Zn38 O44 2.035 . S
O39 Zn38 2.028 . S
O39 C45 1.245 . S
O40 Zn36 2.035 . S
O40 C45 1.259 1_455 S
O41 C34 1.245 . S
O41 Zn38 2.028 . S
O42 C34 1.259 1_455 S
O42 Zn36 2.035 . S
O43 Zn36 2.028 . S
O43 C46 1.254 . S
O44 Zn38 2.035 . S
O44 C46 1.253 1_655 S
C45 O39 1.245 . S
C45 O40 1.259 1_655 S
C46 O43 1.254 . S
C46 O44 1.253 1_455 S
C47 O49 1.246 1_545 S
C47 O51 1.259 . S
C48 O55 1.254 . S
C48 O56 1.246 1_545 S
O49 C47 1.246 1_565 S
O49 Zn50 2.028 . S
Zn50 O49 2.028 . S
Zn50 O54 2.035 . S
Zn50 O56 2.035 . S
Zn50 O57 2.028 . S
O51 C47 1.259 . S
O51 Zn52 2.035 . S
Zn52 O51 2.035 . S
Zn52 O53 2.028 . S
Zn52 O55 2.028 . S
Zn52 O58 2.035 . S
O53 Zn52 2.028 . S
O53 C59 1.255 . S
O54 Zn50 2.035 . S
O54 C59 1.247 1_565 S
O55 C48 1.254 . S
O55 Zn52 2.028 . S
O56 C48 1.246 1_565 S
O56 Zn50 2.035 . S
O57 Zn50 2.028 . S
O57 C60 1.246 1_565 S
O58 Zn52 2.035 . S
O58 C60 1.259 . S
C59 O53 1.255 . S
C59 O54 1.247 1_545 S
C60 O57 1.246 1_545 S
C60 O58 1.259 . S
H61 C67 0.930 . S
H62 C71 0.930 . S
H63 C76 0.929 . S
H64 C74 0.929 . S
H65 C69 0.929 . S
H66 C75 0.929 . S
C67 H61 0.930 . S
C67 C68 1.367 . S
C67 C75 1.378 . S
C68 C67 1.367 . S
C68 C76 1.433 1_455 S
C69 H65 0.929 . S
C69 C71 1.378 . S
C69 C73 1.350 1_655 S
C70 C73 1.463 . S
C70 C75 1.350 . S
C70 N78 1.427 1_455 S
C71 H62 0.930 . S
C71 C69 1.378 . S
C71 C72 1.366 1_655 S
C72 C71 1.366 1_455 S
C72 C74 1.434 . S
C73 C69 1.350 1_455 S
C73 C70 1.463 . S
C73 N77 1.427 . S
C74 H64 0.929 . S
C74 C72 1.434 . S
C74 N77 1.384 . S
C75 H66 0.929 . S
C75 C67 1.378 . S
C75 C70 1.350 . S
C76 H63 0.929 . S
C76 C68 1.433 1_655 S
C76 N78 1.384 . S
N77 C73 1.427 . S
N77 C74 1.384 . S
N78 C70 1.427 1_655 S
N78 C76 1.384 . S
H79 C85 0.930 . S
H80 C89 0.930 . S
H81 C94 0.929 . S
H82 C92 0.929 . S
H83 C87 0.929 . S
H84 C93 0.929 . S
C85 H79 0.930 . S
C85 C86 1.367 . S
C85 C93 1.378 . S
C86 C85 1.367 . S
C86 C94 1.433 1_565 S
C87 H83 0.929 . S
C87 C89 1.378 . S
C87 C91 1.350 1_545 S
C88 C91 1.463 . S
C88 C93 1.350 . S
C88 N96 1.427 1_565 S
C89 H80 0.930 . S
C89 C87 1.378 . S
C89 C90 1.378 . S
C90 C89 1.378 . S
C90 C92 1.419 1_545 S
C91 C87 1.350 1_565 S
C91 C88 1.463 . S
C91 N95 1.427 . S
C92 H82 0.929 . S
C92 C90 1.419 1_565 S
C92 N95 1.384 . S
C93 H84 0.929 . S
C93 C85 1.378 . S
C93 C88 1.350 . S
C94 H81 0.929 . S
C94 C86 1.433 1_545 S
C94 N96 1.384 . S
N95 C91 1.427 . S
N95 C92 1.384 . S
N96 C88 1.427 1_545 S
N96 C94 1.384 . S
H97 C103 0.930 . S
H98 C107 0.930 . S
H99 C112 0.929 . S
H100 C110 0.929 . S
H101 C105 0.929 . S
H102 C111 0.929 . S
C103 H97 0.930 . S
C103 C104 1.367 1_655 S
C103 C111 1.378 . S
C104 C103 1.367 1_455 S
C104 C112 1.433 . S
C105 H101 0.929 . S
C105 C107 1.378 . S
C105 C109 1.350 . S
C106 C109 1.463 . S
C106 C111 1.350 1_455 S
C106 N114 1.427 . S
C107 H98 0.930 . S
C107 C105 1.378 . S
C107 C108 1.367 . S
C108 C107 1.367 . S
C108 C110 1.433 1_455 S
C109 C105 1.350 . S
C109 C106 1.463 . S
C109 N113 1.427 1_455 S
C110 H100 0.929 . S
C110 C108 1.433 1_655 S
C110 N113 1.384 . S
C111 H102 0.929 . S
C111 C103 1.378 . S
C111 C106 1.350 1_655 S
C112 H99 0.929 . S
C112 C104 1.433 . S
C112 N114 1.384 . S
N113 C109 1.427 1_655 S
N113 C110 1.384 . S
N114 C106 1.427 . S
N114 C112 1.384 . S
H115 C121 0.930 . S
H116 C125 0.930 . S
H117 C130 0.929 . S
H118 C128 0.929 . S
H119 C123 0.929 . S
H120 C129 0.929 . S
C121 H115 0.930 . S
C121 C122 1.367 1_545 S
C121 C129 1.378 . S
C122 C121 1.367 1_565 S
C122 C130 1.433 . S
C123 H119 0.929 . S
C123 C125 1.378 . S
C123 C127 1.350 . S
C124 C127 1.463 . S
C124 C129 1.350 1_565 S
C124 N132 1.427 . S
C125 H116 0.930 . S
C125 C123 1.378 . S
C125 C126 1.367 . S
C126 C125 1.367 . S
C126 C128 1.433 1_565 S
C127 C123 1.350 . S
C127 C124 1.463 . S
C127 N131 1.427 1_565 S
C128 H118 0.929 . S
C128 C126 1.433 1_545 S
C128 N131 1.384 . S
C129 H120 0.929 . S
C129 C121 1.378 . S
C129 C124 1.350 1_545 S
C130 H117 0.929 . S
C130 C122 1.433 . S
C130 N132 1.384 . S
N131 C127 1.427 1_545 S
N131 C128 1.384 . S
N132 C124 1.427 . S
N132 C130 1.384 . S
H133 C139 0.930 . S
H134 C143 0.930 . S
H135 C148 0.929 . S
H136 C146 0.929 . S
H137 C141 0.929 . S
H138 C147 0.929 . S
C139 H133 0.930 . S
C139 C140 1.367 . S
C139 C147 1.378 . S
C140 C139 1.367 . S
C140 C148 1.433 1_655 S
C141 H137 0.929 . S
C141 C143 1.378 . S
C141 C145 1.340 1_455 S
C142 C145 1.466 . S
C142 C147 1.350 . S
C142 N150 1.427 1_655 S
C143 H134 0.930 . S
C143 C141 1.378 . S
C143 C144 1.373 . S
C144 C143 1.373 . S
C144 C146 1.425 1_455 S
C145 C141 1.340 1_655 S
C145 C142 1.466 . S
C145 N149 1.434 . S
C146 H136 0.929 . S
C146 C144 1.425 1_655 S
C146 N149 1.384 . S
C147 H138 0.929 . S
C147 C139 1.378 . S
C147 C142 1.350 . S
C148 H135 0.929 . S
C148 C140 1.433 1_455 S
C148 N150 1.384 . S
N149 C145 1.434 . S
N149 C146 1.384 . S
N150 C142 1.427 1_455 S
N150 C148 1.384 . S
H151 C157 0.930 . S
H152 C161 0.930 . S
H153 C166 0.929 . S
H154 C164 0.929 . S
H155 C159 0.929 . S
H156 C165 0.929 . S
C157 H151 0.930 . S
C157 C158 1.367 . S
C157 C165 1.378 . S
C158 C157 1.367 . S
C158 C166 1.433 1_545 S
C159 H155 0.929 . S
C159 C161 1.378 . S
C159 C163 1.350 1_565 S
C160 C163 1.463 . S
C160 C165 1.350 . S
C160 N168 1.427 1_545 S
C161 H152 0.930 . S
C161 C159 1.378 . S
C161 C162 1.367 1_565 S
C162 C161 1.367 1_545 S
C162 C164 1.435 . S
C163 C159 1.350 1_545 S
C163 C160 1.463 . S
C163 N167 1.427 . S
C164 H154 0.929 . S
C164 C162 1.435 . S
C164 N167 1.384 . S
C165 H156 0.929 . S
C165 C157 1.378 . S
C165 C160 1.350 . S
C166 H153 0.929 . S
C166 C158 1.433 1_565 S
C166 N168 1.384 . S
N167 C163 1.427 . S
N167 C164 1.384 . S
N168 C160 1.427 1_565 S
N168 C166 1.384 . S
H169 C175 0.930 . S
H170 C179 0.930 . S
H171 C184 0.929 . S
H172 C182 0.929 . S
H173 C177 0.929 . S
H174 C183 0.929 . S
C175 H169 0.930 . S
C175 C176 1.367 1_455 S
C175 C183 1.378 . S
C176 C175 1.367 1_655 S
C176 C184 1.433 . S
C177 H173 0.929 . S
C177 C179 1.378 . S
C177 C181 1.350 . S
C178 C181 1.463 . S
C178 C183 1.350 1_655 S
C178 N186 1.427 . S
C179 H170 0.930 . S
C179 C177 1.378 . S
C179 C180 1.367 . S
C180 C179 1.367 . S
C180 C182 1.433 1_655 S
C181 C177 1.350 . S
C181 C178 1.463 . S
C181 N185 1.427 1_655 S
C182 H172 0.929 . S
C182 C180 1.433 1_455 S
C182 N185 1.384 . S
C183 H174 0.929 . S
C183 C175 1.378 . S
C183 C178 1.350 1_455 S
C184 H171 0.929 . S
C184 C176 1.433 . S
C184 N186 1.384 . S
N185 C181 1.427 1_455 S
N185 C182 1.384 . S
N186 C178 1.427 . S
N186 C184 1.384 . S
H187 C193 0.930 . S
H188 C197 0.930 . S
H189 C202 0.929 . S
H190 C200 0.929 . S
H191 C195 0.929 . S
H192 C201 0.929 . S
C193 H187 0.930 . S
C193 C194 1.367 1_565 S
C193 C201 1.378 . S
C194 C193 1.367 1_545 S
C194 C202 1.433 . S
C195 H191 0.929 . S
C195 C197 1.378 . S
C195 C199 1.350 . S
C196 C199 1.463 . S
C196 C201 1.350 1_545 S
C196 N204 1.427 . S
C197 H188 0.930 . S
C197 C195 1.378 . S
C197 C198 1.367 . S
C198 C197 1.367 . S
C198 C200 1.433 1_545 S
C199 C195 1.350 . S
C199 C196 1.463 . S
C199 N203 1.427 1_545 S
C200 H190 0.929 . S
C200 C198 1.433 1_565 S
C200 N203 1.384 . S
C201 H192 0.929 . S
C201 C193 1.378 . S
C201 C196 1.350 1_565 S
C202 H189 0.929 . S
C202 C194 1.433 . S
C202 N204 1.384 . S
N203 C199 1.427 1_565 S
N203 C200 1.384 . S
N204 C196 1.427 . S
N204 C202 1.384 . S
C68 C23 1.305 . S
C72 C34 1.388 1_455 S
C86 C22 1.423 . S
C90 C60 1.477 . S
C104 C21 1.709 . S
C108 C46 1.722 . S
C122 C24 1.472 . S
C126 C48 1.545 1_565 S
C140 C27 1.303 . S
C144 C33 1.389 . S
C158 C26 1.431 . S
C162 C59 1.476 . S
C180 C45 1.727 . S
C176 C25 1.711 . S
C194 C28 1.472 . S
C198 C47 1.539 . S
