# Generated by pormake.
# Topology pts, (4,4)-cn, num edge types: 1
# Building blocks:
#     Node 0, Type 0, BuildingBlock: ESEHIV_clean_sbu_0, # of connection points: 4
#     Node 1, Type 0, BuildingBlock: ESEHIV_clean_sbu_0, # of connection points: 4
#     Node 2, Type 1, BuildingBlock: AZAVOO_clean_sbu_0, # of connection points: 4
#     Node 3, Type 1, BuildingBlock: AZAVOO_clean_sbu_0, # of connection points: 4
#     Edge 4, Type (0, 1), BuildingBlock: FUNLAD_clean_linker_0, # of connection points: 2
#     Edge 5, Type (0, 1), BuildingBlock: FUNLAD_clean_linker_0, # of connection points: 2
#     Edge 6, Type (0, 1), BuildingBlock: FUNLAD_clean_linker_0, # of connection points: 2
#     Edge 7, Type (0, 1), BuildingBlock: FUNLAD_clean_linker_0, # of connection points: 2
#     Edge 8, Type (0, 1), BuildingBlock: FUNLAD_clean_linker_0, # of connection points: 2
#     Edge 9, Type (0, 1), BuildingBlock: FUNLAD_clean_linker_0, # of connection points: 2
#     Edge 10, Type (0, 1), BuildingBlock: FUNLAD_clean_linker_0, # of connection points: 2
#     Edge 11, Type (0, 1), BuildingBlock: FUNLAD_clean_linker_0, # of connection points: 2
# Relax obj value: 0.001
# Max RMSD: 0.095
# Mean RMSD: 0.062
data_MOF--net-pts--node1-ESEHIV_clean_sbu_0--node2-AZAVOO_clean_sbu_0--edge1-FUNLAD_clean_linker_0
_symmetry_space_group_name_H-M    P1
_symmetry_Int_Tables_number       1
_symmetry_cell_setting            triclinic
loop_
_symmetry_equiv_pos_as_xyz
'x, y, z'
_cell_length_a     28.310872
_cell_length_b     29.417476
_cell_length_c     43.37223
_cell_angle_alpha  93.289038
_cell_angle_beta   99.053977
_cell_angle_gamma 89.918693
loop_
_atom_site_label
_atom_site_type_symbol
_atom_site_fract_x
_atom_site_fract_y
_atom_site_fract_z
_atom_type_partial_charge
Cu0 Cu 0.55869 0.02869 0.01492 0.0
N1 N 0.59603 0.99299 0.99122 0.0
N2 N 0.65343 0.97864 0.96193 0.0
C3 C 0.63394 0.00973 0.98024 0.0
C4 C 0.62659 0.94057 0.96161 0.0
C5 C 0.59114 0.94957 0.97963 0.0
O6 O 0.60434 0.06653 0.04373 0.0
C7 C 0.4805 0.03152 0.97078 0.0
O8 O 0.48643 0.98786 0.97487 0.0
H9 H 0.64662 0.0444 0.98557 0.0
H10 H 0.56314 0.92646 0.98325 0.0
N11 N 0.52222 0.99596 0.0388 0.0
N12 N 0.46401 0.98438 0.06697 0.0
C13 C 0.48681 0.01494 0.05237 0.0
C14 C 0.5221 0.95165 0.04496 0.0
C15 C 0.48617 0.9444 0.06236 0.0
C16 C 0.62684 0.04457 0.06592 0.0
O17 O 0.61626 0.00146 0.06762 0.0
H18 H 0.47713 0.05041 0.05064 0.0
H19 H 0.54617 0.92641 0.03727 0.0
O20 O 0.51132 0.05953 0.98588 0.0
H21 H 0.63116 0.90886 0.94853 0.0
H22 H 0.47725 0.91222 0.07097 0.0
Cu23 Cu 0.08281 0.55795 0.51347 0.0
N24 N 0.12269 0.52212 0.54032 0.0
N25 N 0.14268 0.47165 0.57662 0.0
C26 C 0.10662 0.49283 0.55904 0.0
C27 C 0.18316 0.48834 0.5685 0.0
C28 C 0.17069 0.51964 0.54613 0.0
O29 O 0.03937 0.51555 0.48701 0.0
C30 C 0.08262 0.62523 0.55889 0.0
O31 O 0.1285 0.61845 0.55885 0.0
H32 H 0.069 0.48682 0.5593 0.0
H33 H 0.19484 0.53942 0.53513 0.0
N34 N 0.11667 0.59132 0.48876 0.0
N35 N 0.13009 0.64666 0.45788 0.0
C36 C 0.10392 0.63286 0.47915 0.0
C37 C 0.15253 0.57823 0.47335 0.0
C38 C 0.16105 0.61245 0.45435 0.0
C39 C 0.02991 0.51676 0.45737 0.0
O40 O 0.0427 0.55259 0.44386 0.0
H41 H 0.07477 0.65174 0.48696 0.0
H42 H 0.16958 0.54533 0.47466 0.0
O43 O 0.05273 0.60125 0.53964 0.0
H44 H 0.2192 0.47908 0.57825 0.0
H45 H 0.18639 0.61109 0.43807 0.0
Mg46 Mg 0.10705 0.06784 0.28163 0.0
O47 O 0.03167 0.0553 0.25282 0.0
O48 O 0.98381 0.03708 0.28673 0.0
Mg49 Mg 0.02603 0.03989 0.33613 0.0
C50 C 0.99063 0.04426 0.259 0.0
C51 C 0.1345 0.06438 0.21609 0.0
O52 O 0.10855 0.02733 0.21584 0.0
O53 O 0.08187 0.13799 0.29828 0.0
O54 O 0.03489 0.11692 0.33204 0.0
O55 O 0.12536 0.99389 0.27875 0.0
O56 O 0.09154 0.0266 0.31658 0.0
C57 C 0.0541 0.14771 0.31831 0.0
C58 C 0.10744 0.99012 0.30411 0.0
O59 O 0.13685 0.09301 0.23945 0.0
Mg60 Mg 1.00726 0.05526 0.74075 0.0
O61 O 0.07943 0.05037 0.77401 0.0
O62 O 0.13675 0.04092 0.7442 0.0
Mg63 Mg 0.10296 0.03857 0.69294 0.0
C64 C 0.12346 0.04589 0.77097 0.0
C65 C 0.9701 0.0485 0.80332 0.0
O66 O 0.99907 0.01363 0.80278 0.0
O67 O 0.0274 0.1286 0.7313 0.0
O68 O 0.08415 0.11322 0.70162 0.0
O69 O 0.99678 0.97942 0.73653 0.0
O70 O 0.03467 0.01731 0.70541 0.0
C71 C 0.0586 0.14142 0.71513 0.0
C72 C 0.02047 0.97877 0.71335 0.0
O73 O 0.96772 0.0762 0.78162 0.0
C74 C 0.41492 0.03677 0.09543 0.0
C75 C 0.42346 0.99286 0.08295 0.0
C76 C 0.37504 0.04543 0.11023 0.0
C77 C 0.34246 0.01025 0.1129 0.0
C78 C 0.35136 0.9663 0.10065 0.0
C79 C 0.39124 0.95768 0.08588 0.0
C80 C 0.29945 0.01703 0.12866 0.0
C81 C 0.2839 0.05763 0.13922 0.0
C82 C 0.24214 0.06189 0.15624 0.0
C83 C 0.24108 0.09785 0.1789 0.0
C84 C 0.20459 0.10039 0.19732 0.0
C85 C 0.16813 0.06717 0.19322 0.0
H86 H 0.20221 0.00348 0.13256 0.0
C87 C 0.16742 0.03308 0.16904 0.0
C88 C 0.20388 0.03049 0.15073 0.0
H89 H 0.1395 0.00731 0.16489 0.0
H90 H 0.43939 0.06455 0.09413 0.0
H91 H 0.37063 0.07966 0.11966 0.0
H92 H 0.32715 0.93838 0.10235 0.0
H93 H 0.39629 0.92357 0.07631 0.0
H94 H 0.28016 0.9864 0.13227 0.0
H95 H 0.30334 0.08867 0.13706 0.0
H96 H 0.26964 0.12299 0.18328 0.0
H97 H 0.20615 0.12723 0.21563 0.0
C98 C 0.09721 0.43497 0.61293 0.0
C99 C 0.13828 0.43735 0.59853 0.0
C100 C 0.09144 0.40004 0.63263 0.0
C101 C 0.12684 0.3666 0.63848 0.0
C102 C 0.16835 0.36973 0.62465 0.0
C103 C 0.17409 0.40465 0.60501 0.0
C104 C 0.12132 0.32642 0.6571 0.0
C105 C 0.08636 0.32058 0.6745 0.0
C106 C 0.08057 0.27736 0.68988 0.0
C107 C 0.0347 0.26336 0.69431 0.0
C108 C 0.02744 0.22001 0.70475 0.0
C109 C 0.06605 0.19012 0.7108 0.0
H110 H 0.15585 0.25913 0.69745 0.0
C111 C 0.1123 0.20553 0.70876 0.0
C112 C 0.11962 0.2488 0.69882 0.0
H113 H 0.14285 0.18344 0.71395 0.0
H114 H 0.06921 0.46 0.60886 0.0
H115 H 0.05868 0.3991 0.64241 0.0
H116 H 0.19624 0.34449 0.62858 0.0
H117 H 0.20596 0.40513 0.59416 0.0
H118 H 0.14689 0.29929 0.65515 0.0
H119 H 0.05937 0.3464 0.67601 0.0
H120 H 1.00408 0.28501 0.68815 0.0
H121 H 0.99143 0.20891 0.70619 0.0
C122 C 0.67269 0.05137 0.11929 0.0
C123 C 0.66734 0.06399 0.08826 0.0
C124 C 0.71594 0.05855 0.13926 0.0
C125 C 0.7554 0.07751 0.12839 0.0
C126 C 0.74882 0.09379 0.09814 0.0
C127 C 0.705 0.087 0.07811 0.0
C128 C 0.80373 0.07869 0.14792 0.0
C129 C 0.81774 0.04576 0.16778 0.0
C130 C 0.8638 0.04516 0.18963 0.0
C131 C 0.86589 0.01913 0.21593 0.0
C132 C 0.90745 0.01801 0.23789 0.0
C133 C 0.94849 0.04231 0.23388 0.0
H134 H 0.90535 0.08824 0.16468 0.0
C135 C 0.94727 0.06706 0.20693 0.0
C136 C 0.90518 0.06872 0.18505 0.0
H137 H 0.97835 0.08618 0.20321 0.0
H138 H 0.64396 0.03392 0.12772 0.0
H139 H 0.71875 0.04775 0.16292 0.0
H140 H 0.77837 0.10933 0.08939 0.0
H141 H 0.70179 0.09666 0.05414 0.0
H142 H 0.82796 0.10627 0.14534 0.0
H143 H 0.79321 0.01782 0.1691 0.0
H144 H 0.83479 1.00025 0.21994 0.0
H145 H 0.90722 0.99837 0.25825 0.0
C146 C 0.10237 0.68466 0.60221 0.0
C147 C 0.06749 0.66143 0.58031 0.0
C148 C 0.08986 0.72086 0.62135 0.0
C149 C 0.04212 0.73509 0.61897 0.0
C150 C 1.00677 0.71065 0.59817 0.0
C151 C 0.01935 0.67421 0.57883 0.0
C152 C 0.02904 0.77568 0.63775 0.0
C153 C 0.05866 0.81196 0.64447 0.0
C154 C 0.0474 0.85399 0.66234 0.0
C155 C 0.06812 0.89515 0.6563 0.0
C156 C 0.05948 0.93551 0.6729 0.0
C157 C 0.03077 0.93554 0.69653 0.0
H158 H 1.00296 0.82235 0.69168 0.0
C159 C 1.01052 0.89415 0.70298 0.0
C160 C 0.01858 0.85373 0.68595 0.0
H161 H 0.98811 0.89302 0.72099 0.0
H162 H 0.1397 0.67526 0.60443 0.0
H163 H 0.11781 0.73775 0.63796 0.0
H164 H 0.96961 0.72062 0.59621 0.0
H165 H 0.99163 0.65673 0.56236 0.0
H166 H 0.99357 0.77686 0.64434 0.0
H167 H 0.09188 0.81216 0.63487 0.0
H168 H 0.09069 0.89622 0.63835 0.0
H169 H 0.07518 0.96665 0.66697 0.0
C170 C 0.39757 0.01613 0.94402 0.0
C171 C 0.43702 0.04604 0.95026 0.0
C172 C 0.35727 0.02642 0.92286 0.0
C173 C 0.35519 0.06707 0.90724 0.0
C174 C 0.39423 0.09759 0.91387 0.0
C175 C 0.43468 0.08743 0.93552 0.0
C176 C 0.315 0.07563 0.88174 0.0
C177 C 0.27092 0.05735 0.88036 0.0
C178 C 0.23329 0.05748 0.85227 0.0
C179 C 0.18507 0.0521 0.85564 0.0
C180 C 0.14919 0.04843 0.82938 0.0
C181 C 0.16096 0.04921 0.79911 0.0
H182 H 0.28178 0.0611 0.8183 0.0
C183 C 0.2093 0.05439 0.7958 0.0
C184 C 0.24498 0.05851 0.82199 0.0
H185 H 0.21979 0.05524 0.77287 0.0
H186 H 0.39809 0.984 0.9551 0.0
H187 H 0.32881 0.0013 0.91784 0.0
H188 H 0.39378 0.12893 0.90188 0.0
H189 H 0.46465 0.11102 0.93981 0.0
H190 H 0.32255 0.09638 0.86315 0.0
H191 H 0.26205 0.0406 0.90041 0.0
H192 H 0.17513 0.0505 0.87869 0.0
H193 H 0.11236 0.0445 0.8328 0.0
C194 C 0.0158 0.47181 0.40581 0.0
C195 C 0.01474 0.47442 0.43819 0.0
C196 C 1.01015 0.42991 0.38861 0.0
C197 C 1.00331 0.38971 0.40349 0.0
C198 C 0.99881 0.3929 0.43533 0.0
C199 C 1.00471 0.43469 0.45255 0.0
C200 C 1.00209 0.34378 0.38709 0.0
C201 C 0.02419 0.33376 0.36213 0.0
C202 C 0.0287 0.28643 0.34869 0.0
C203 C 0.06622 0.27624 0.33173 0.0
C204 C 0.07385 0.23145 0.32087 0.0
C205 C 0.04405 0.19591 0.32683 0.0
H206 H 0.96669 0.25761 0.36468 0.0
C207 C 1.00516 0.2065 0.34246 0.0
C208 C 0.99731 0.25117 0.35303 0.0
H209 H 0.98081 0.18011 0.34684 0.0
H210 H 0.02299 0.50182 0.39391 0.0
H211 H 1.01197 0.42917 0.36386 0.0
H212 H 0.99278 0.36261 0.44731 0.0
H213 H 1.0033 0.43547 0.47739 0.0
H214 H 0.98652 0.31654 0.39812 0.0
H215 H 0.04348 0.36037 0.35289 0.0
H216 H 0.09061 0.30279 0.32765 0.0
H217 H 0.10395 0.22451 0.30874 0.0
C218 C 0.70693 0.02964 0.93912 0.0
C219 C 0.69319 0.98551 0.94535 0.0
C220 C 0.7454 0.03642 0.92316 0.0
C221 C 0.77103 0.99911 0.91266 0.0
C222 C 0.75752 0.95509 0.91909 0.0
C223 C 0.71913 0.94832 0.93513 0.0
C224 C 0.81244 0.00426 0.89556 0.0
C225 C 0.82309 0.04261 0.88223 0.0
C226 C 0.8634 0.04599 0.86402 0.0
C227 C 0.86135 0.07869 0.84143 0.0
C228 C 0.89701 0.08103 0.82253 0.0
C229 C 0.93574 0.0508 0.82593 0.0
H230 H 0.90778 0.99313 0.88653 0.0
C231 C 0.93912 0.01974 0.84964 0.0
C232 C 0.90357 0.01746 0.86854 0.0
H233 H 0.96881 0.99636 0.85322 0.0
H234 H 0.68777 0.05922 0.94629 0.0
H235 H 0.75493 0.07104 0.91953 0.0
H236 H 0.77672 0.92562 0.9116 0.0
H237 H 0.71023 0.91391 0.93981 0.0
H238 H 0.83368 0.97402 0.89266 0.0
H239 H 0.79991 0.07191 0.88275 0.0
H240 H 0.83127 0.10162 0.83772 0.0
H241 H 0.89334 0.10548 0.80458 0.0
C242 C 0.15995 0.70477 0.42625 0.0
C243 C 0.12309 0.6873 0.44054 0.0
C244 C 0.15288 0.744 0.40932 0.0
C245 C 0.10862 0.76657 0.40621 0.0
C246 C 0.07204 0.74934 0.42068 0.0
C247 C 0.079 0.71011 0.43744 0.0
C248 C 0.09978 0.80911 0.38931 0.0
C249 C 0.12344 0.82042 0.36618 0.0
C250 C 0.1153 0.86351 0.34976 0.0
C251 C 0.12919 0.866 0.32022 0.0
C252 C 0.125 0.90667 0.30486 0.0
C253 C 0.1071 0.94596 0.31884 0.0
H254 H 0.08677 0.90283 0.38664 0.0
C255 C 0.09245 0.94339 0.34818 0.0
C256 C 0.09662 0.90272 0.36354 0.0
H257 H 0.07917 0.97318 0.35982 0.0
H258 H 0.19458 0.68861 0.42856 0.0
H259 H 0.18252 0.757 0.39937 0.0
H260 H 0.03768 0.7661 0.41882 0.0
H261 H 0.0494 0.69751 0.44757 0.0
H262 H 0.07117 0.83077 0.3954 0.0
H263 H 0.14886 0.79663 0.35812 0.0
H264 H 0.14393 0.83649 0.3091 0.0
H265 H 0.13684 0.90754 0.28234 0.0
loop_
_geom_bond_atom_site_label_1
_geom_bond_atom_site_label_2
_geom_bond_distance
_geom_bond_site_symmetry_2
_ccdc_geom_bond_type
Cu0 N1 1.999 1_554 S
Cu0 O6 1.974 . S
Cu0 N11 1.985 . S
Cu0 O20 1.959 1_554 S
N1 Cu0 1.999 1_556 S
N1 C3 1.263 . S
N1 C5 1.389 . S
N2 C3 1.358 . S
N2 C4 1.400 . S
C3 N1 1.263 . S
C3 N2 1.358 . S
C3 H9 0.930 . S
C4 N2 1.400 . S
C4 C5 1.351 . S
C4 H21 0.930 . S
C5 N1 1.389 . S
C5 C4 1.351 . S
C5 H10 0.930 . S
O6 Cu0 1.974 . S
O6 C16 1.282 . S
C7 O8 1.261 1_545 S
C7 O20 1.251 . S
O8 C7 1.261 1_565 S
H9 C3 0.930 . S
H10 C5 0.930 . S
N11 Cu0 1.985 . S
N11 C13 1.335 . S
N11 C14 1.390 . S
N12 C13 1.345 . S
N12 C15 1.336 . S
C13 N11 1.335 . S
C13 N12 1.345 . S
C13 H18 0.930 . S
C14 N11 1.390 . S
C14 C15 1.346 . S
C14 H19 0.930 . S
C15 N12 1.336 . S
C15 C14 1.346 . S
C15 H22 0.929 . S
C16 O6 1.282 . S
C16 O17 1.216 1_545 S
O17 C16 1.216 1_565 S
H18 C13 0.930 . S
H19 C14 0.930 . S
O20 Cu0 1.959 1_556 S
O20 C7 1.251 . S
H21 C4 0.930 . S
H22 C15 0.929 . S
Cu23 N24 1.999 . S
Cu23 O29 1.974 . S
Cu23 N34 1.985 . S
Cu23 O43 1.959 . S
N24 Cu23 1.999 . S
N24 C26 1.263 . S
N24 C28 1.389 1_455 S
N25 C26 1.358 . S
N25 C27 1.400 1_455 S
C26 N24 1.263 . S
C26 N25 1.358 . S
C26 H32 0.930 . S
C27 N25 1.400 1_655 S
C27 C28 1.351 . S
C27 H44 0.930 . S
C28 N24 1.389 1_655 S
C28 C27 1.351 . S
C28 H33 0.930 . S
O29 Cu23 1.974 . S
O29 C39 1.282 . S
C30 O31 1.261 . S
C30 O43 1.251 . S
O31 C30 1.261 . S
H32 C26 0.930 . S
H33 C28 0.930 . S
N34 Cu23 1.985 . S
N34 C36 1.335 . S
N34 C37 1.390 . S
N35 C36 1.345 . S
N35 C38 1.336 . S
C36 N34 1.335 . S
C36 N35 1.345 . S
C36 H41 0.930 . S
C37 N34 1.390 . S
C37 C38 1.346 . S
C37 H42 0.930 . S
C38 N35 1.336 . S
C38 C37 1.346 . S
C38 H45 0.929 . S
C39 O29 1.282 . S
C39 O40 1.216 . S
O40 C39 1.216 . S
H41 C36 0.930 . S
H42 C37 0.930 . S
O43 Cu23 1.959 . S
O43 C30 1.251 . S
H44 C27 0.930 . S
H45 C38 0.929 . S
Mg46 O47 2.028 . S
Mg46 O53 1.986 . S
Mg46 O55 2.114 1_545 S
Mg46 O56 2.251 . S
Mg46 O59 2.010 . S
O47 Mg46 2.028 . S
O47 C50 1.250 1_455 S
O48 Mg49 2.028 . S
O48 C50 1.248 . S
Mg49 O48 2.028 . S
Mg49 O54 2.032 1_655 S
Mg49 O56 2.079 1_655 S
C50 O47 1.250 1_655 S
C50 O48 1.248 . S
C51 O52 1.264 . S
C51 O59 1.249 . S
O52 C51 1.264 . S
O53 Mg46 1.986 . S
O53 C57 1.246 . S
O54 Mg49 2.032 1_455 S
O54 C57 1.259 . S
O55 Mg46 2.114 1_565 S
O55 C58 1.252 . S
O56 Mg46 2.251 . S
O56 Mg49 2.079 1_455 S
O56 C58 1.273 1_545 S
C57 O53 1.246 . S
C57 O54 1.259 . S
C58 O55 1.252 . S
C58 O56 1.273 1_565 S
O59 Mg46 2.010 . S
O59 C51 1.249 . S
Mg60 O61 2.028 . S
Mg60 O67 1.986 . S
Mg60 O69 2.114 1_545 S
Mg60 O70 2.251 . S
Mg60 O73 2.010 1_455 S
O61 Mg60 2.028 . S
O61 C64 1.250 . S
O62 Mg63 2.028 . S
O62 C64 1.248 . S
Mg63 O62 2.028 . S
Mg63 O68 2.032 . S
Mg63 O70 2.079 . S
C64 O61 1.250 . S
C64 O62 1.248 . S
C65 O66 1.264 . S
C65 O73 1.249 . S
O66 C65 1.264 . S
O67 Mg60 1.986 . S
O67 C71 1.246 . S
O68 Mg63 2.032 . S
O68 C71 1.259 . S
O69 Mg60 2.114 1_565 S
O69 C72 1.252 . S
O70 Mg60 2.251 . S
O70 Mg63 2.079 . S
O70 C72 1.273 1_545 S
C71 O67 1.246 . S
C71 O68 1.259 . S
C72 O69 1.252 . S
C72 O70 1.273 1_565 S
O73 Mg60 2.010 1_655 S
O73 C65 1.249 . S
C74 C75 1.386 . S
C74 C76 1.383 . S
C74 H90 0.951 . S
C75 C74 1.386 . S
C75 C79 1.383 . S
C76 C74 1.383 . S
C76 C77 1.402 . S
C76 H91 0.951 . S
C77 C76 1.402 . S
C77 C78 1.375 . S
C77 C80 1.481 . S
C78 C77 1.375 . S
C78 C79 1.367 . S
C78 H92 0.951 1_545 S
C79 C75 1.383 . S
C79 C78 1.367 . S
C79 H93 0.950 1_545 S
C80 C77 1.481 . S
C80 C81 1.297 . S
C80 H94 0.950 . S
C81 C80 1.297 . S
C81 C82 1.479 . S
C81 H95 0.950 . S
C82 C81 1.479 . S
C82 C83 1.375 . S
C82 C88 1.404 . S
C83 C82 1.375 . S
C83 C84 1.369 . S
C83 H96 0.950 . S
C84 C83 1.369 . S
C84 C85 1.392 . S
C84 H97 0.951 . S
C85 C84 1.392 . S
C85 C87 1.384 . S
H86 C88 0.949 . S
C87 C85 1.384 . S
C87 C88 1.385 . S
C87 H89 0.950 . S
C88 C82 1.404 . S
C88 H86 0.949 . S
C88 C87 1.385 . S
H89 C87 0.950 . S
H90 C74 0.951 . S
H91 C76 0.951 . S
H92 C78 0.951 1_565 S
H93 C79 0.950 1_565 S
H94 C80 0.950 . S
H95 C81 0.950 . S
H96 C83 0.950 . S
H97 C84 0.951 . S
C98 C99 1.405 . S
C98 C100 1.384 . S
C98 H114 0.930 1_455 S
C99 C98 1.405 . S
C99 C103 1.383 . S
C100 C98 1.384 . S
C100 C101 1.402 . S
C100 H115 0.951 1_455 S
C101 C100 1.402 . S
C101 C102 1.375 . S
C101 C104 1.481 . S
C102 C101 1.375 . S
C102 C103 1.367 . S
C102 H116 0.951 . S
C103 C99 1.383 . S
C103 C102 1.367 . S
C103 H117 0.950 . S
C104 C101 1.481 . S
C104 C105 1.297 . S
C104 H118 0.950 . S
C105 C104 1.297 . S
C105 C106 1.479 . S
C105 H119 0.950 1_455 S
C106 C105 1.479 . S
C106 C107 1.375 1_455 S
C106 C112 1.404 . S
C107 C106 1.375 1_655 S
C107 C108 1.369 . S
C107 H120 0.950 . S
C108 C107 1.369 . S
C108 C109 1.392 1_655 S
C108 H121 0.951 . S
C109 C108 1.392 1_455 S
C109 C111 1.384 . S
H110 C112 0.949 . S
C111 C109 1.384 . S
C111 C112 1.385 . S
C111 H113 0.950 . S
C112 C106 1.404 . S
C112 H110 0.949 . S
C112 C111 1.385 . S
H113 C111 0.950 . S
H114 C98 0.930 1_655 S
H115 C100 0.951 1_655 S
H116 C102 0.951 . S
H117 C103 0.950 . S
H118 C104 0.950 . S
H119 C105 0.950 1_655 S
H120 C107 0.950 . S
H121 C108 0.951 . S
C122 C123 1.386 . S
C122 C124 1.383 . S
C122 H138 0.951 1_545 S
C123 C122 1.386 . S
C123 C127 1.383 . S
C124 C122 1.383 . S
C124 C125 1.402 . S
C124 H139 0.951 1_545 S
C125 C124 1.402 . S
C125 C126 1.375 . S
C125 C128 1.481 . S
C126 C125 1.375 . S
C126 C127 1.367 . S
C126 H140 0.951 . S
C127 C123 1.383 . S
C127 C126 1.367 . S
C127 H141 0.950 . S
C128 C125 1.481 . S
C128 C129 1.297 . S
C128 H142 0.950 . S
C129 C128 1.297 . S
C129 C130 1.479 . S
C129 H143 0.950 1_545 S
C130 C129 1.479 . S
C130 C131 1.375 . S
C130 C136 1.404 . S
C131 C130 1.375 . S
C131 C132 1.369 . S
C131 H144 0.950 1_545 S
C132 C131 1.369 . S
C132 C133 1.392 . S
C132 H145 0.951 . S
C133 C132 1.392 . S
C133 C135 1.384 . S
H134 C136 0.949 . S
C135 C133 1.384 . S
C135 C136 1.385 . S
C135 H137 0.950 . S
C136 C130 1.404 . S
C136 H134 0.949 . S
C136 C135 1.385 . S
H137 C135 0.950 . S
H138 C122 0.951 1_565 S
H139 C124 0.951 1_565 S
H140 C126 0.951 . S
H141 C127 0.950 . S
H142 C128 0.950 . S
H143 C129 0.950 1_565 S
H144 C131 0.950 1_565 S
H145 C132 0.951 . S
C146 C147 1.386 . S
C146 C148 1.383 . S
C146 H162 0.951 . S
C147 C146 1.386 . S
C147 C151 1.383 . S
C148 C146 1.383 . S
C148 C149 1.402 . S
C148 H163 0.951 . S
C149 C148 1.402 . S
C149 C150 1.375 . S
C149 C152 1.481 . S
C150 C149 1.375 . S
C150 C151 1.367 . S
C150 H164 0.951 1_455 S
C151 C147 1.383 . S
C151 C150 1.367 . S
C151 H165 0.950 1_455 S
C152 C149 1.481 . S
C152 C153 1.297 . S
C152 H166 0.950 . S
C153 C152 1.297 . S
C153 C154 1.479 . S
C153 H167 0.950 . S
C154 C153 1.479 . S
C154 C155 1.375 . S
C154 C160 1.404 . S
C155 C154 1.375 . S
C155 C156 1.369 . S
C155 H168 0.950 . S
C156 C155 1.369 . S
C156 C157 1.392 . S
C156 H169 0.951 . S
C157 C156 1.392 . S
C157 C159 1.384 . S
H158 C160 0.949 1_655 S
C159 C157 1.384 . S
C159 C160 1.385 . S
C159 H161 0.950 1_455 S
C160 C154 1.404 . S
C160 H158 0.949 1_455 S
C160 C159 1.385 . S
H161 C159 0.950 1_655 S
H162 C146 0.951 . S
H163 C148 0.951 . S
H164 C150 0.951 1_655 S
H165 C151 0.950 1_655 S
H166 C152 0.950 . S
H167 C153 0.950 . S
H168 C155 0.950 . S
H169 C156 0.951 . S
C170 C171 1.386 1_565 S
C170 C172 1.383 1_565 S
C170 H186 0.951 . S
C171 C170 1.386 1_545 S
C171 C175 1.383 . S
C172 C170 1.383 1_545 S
C172 C173 1.402 . S
C172 H187 0.951 1_545 S
C173 C172 1.402 . S
C173 C174 1.375 . S
C173 C176 1.481 . S
C174 C173 1.375 . S
C174 C175 1.367 . S
C174 H188 0.951 . S
C175 C171 1.383 . S
C175 C174 1.367 . S
C175 H189 0.950 . S
C176 C173 1.481 . S
C176 C177 1.297 . S
C176 H190 0.950 . S
C177 C176 1.297 . S
C177 C178 1.479 . S
C177 H191 0.950 . S
C178 C177 1.479 . S
C178 C179 1.355 1_545 S
C178 C184 1.404 . S
C179 C178 1.355 1_565 S
C179 C180 1.366 1_565 S
C179 H192 0.973 . S
C180 C179 1.366 1_545 S
C180 C181 1.409 . S
C180 H193 0.935 1_545 S
C181 C180 1.409 . S
C181 C183 1.384 . S
H182 C184 0.949 . S
C183 C181 1.384 . S
C183 C184 1.385 . S
C183 H185 0.950 . S
C184 C178 1.404 . S
C184 H182 0.949 . S
C184 C183 1.385 . S
H185 C183 0.950 . S
H186 C170 0.951 . S
H187 C172 0.951 1_565 S
H188 C174 0.951 . S
H189 C175 0.950 . S
H190 C176 0.950 . S
H191 C177 0.950 . S
H192 C179 0.973 . S
H193 C180 0.935 1_565 S
C194 C195 1.386 . S
C194 C196 1.383 . S
C194 H210 0.951 . S
C195 C194 1.386 . S
C195 C199 1.383 . S
C196 C194 1.383 . S
C196 C197 1.402 . S
C196 H211 0.951 . S
C197 C196 1.402 . S
C197 C198 1.375 . S
C197 C200 1.481 . S
C198 C197 1.375 . S
C198 C199 1.367 . S
C198 H212 0.951 . S
C199 C195 1.383 . S
C199 C198 1.367 . S
C199 H213 0.950 . S
C200 C197 1.481 . S
C200 C201 1.297 . S
C200 H214 0.950 . S
C201 C200 1.297 . S
C201 C202 1.479 . S
C201 H215 0.950 . S
C202 C201 1.479 . S
C202 C203 1.375 . S
C202 C208 1.404 . S
C203 C202 1.375 . S
C203 C204 1.369 . S
C203 H216 0.950 . S
C204 C203 1.369 . S
C204 C205 1.392 . S
C204 H217 0.951 . S
C205 C204 1.392 . S
C205 C207 1.384 . S
H206 C208 0.949 . S
C207 C205 1.384 . S
C207 C208 1.385 . S
C207 H209 0.950 . S
C208 C202 1.404 . S
C208 H206 0.949 . S
C208 C207 1.385 . S
H209 C207 0.950 . S
H210 C194 0.951 . S
H211 C196 0.951 . S
H212 C198 0.951 . S
H213 C199 0.950 . S
H214 C200 0.950 . S
H215 C201 0.950 . S
H216 C203 0.950 . S
H217 C204 0.951 . S
C218 C219 1.386 . S
C218 C220 1.383 . S
C218 H234 0.951 . S
C219 C218 1.386 . S
C219 C223 1.383 . S
C220 C218 1.383 . S
C220 C221 1.402 . S
C220 H235 0.951 . S
C221 C220 1.402 . S
C221 C222 1.375 1_545 S
C221 C224 1.481 . S
C222 C221 1.375 1_565 S
C222 C223 1.367 1_565 S
C222 H236 0.951 . S
C223 C219 1.383 . S
C223 C222 1.367 1_545 S
C223 H237 0.950 1_545 S
C224 C221 1.481 . S
C224 C225 1.297 . S
C224 H238 0.950 1_545 S
C225 C224 1.297 . S
C225 C226 1.479 . S
C225 H239 0.950 . S
C226 C225 1.479 . S
C226 C227 1.375 . S
C226 C232 1.404 . S
C227 C226 1.375 . S
C227 C228 1.369 . S
C227 H240 0.950 . S
C228 C227 1.369 . S
C228 C229 1.392 . S
C228 H241 0.951 . S
C229 C228 1.392 . S
C229 C231 1.384 . S
H230 C232 0.949 1_565 S
C231 C229 1.384 . S
C231 C232 1.385 . S
C231 H233 0.950 1_545 S
C232 C226 1.404 . S
C232 H230 0.949 1_545 S
C232 C231 1.385 . S
H233 C231 0.950 1_565 S
H234 C218 0.951 . S
H235 C220 0.951 . S
H236 C222 0.951 . S
H237 C223 0.950 1_565 S
H238 C224 0.950 1_565 S
H239 C225 0.950 . S
H240 C227 0.950 . S
H241 C228 0.951 . S
C242 C243 1.386 . S
C242 C244 1.383 . S
C242 H258 0.951 . S
C243 C242 1.386 . S
C243 C247 1.384 1_455 S
C244 C242 1.383 . S
C244 C245 1.402 . S
C244 H259 0.951 . S
C245 C244 1.402 . S
C245 C246 1.375 1_455 S
C245 C248 1.481 . S
C246 C245 1.375 1_655 S
C246 C247 1.367 . S
C246 H260 0.951 . S
C247 C243 1.384 1_655 S
C247 C246 1.367 . S
C247 H261 0.949 . S
C248 C245 1.481 . S
C248 C249 1.297 . S
C248 H262 0.950 . S
C249 C248 1.297 . S
C249 C250 1.479 . S
C249 H263 0.950 . S
C250 C249 1.479 . S
C250 C251 1.375 . S
C250 C256 1.404 . S
C251 C250 1.375 . S
C251 C252 1.369 . S
C251 H264 0.950 . S
C252 C251 1.369 . S
C252 C253 1.392 . S
C252 H265 0.951 . S
C253 C252 1.392 . S
C253 C255 1.384 . S
H254 C256 0.949 1_655 S
C255 C253 1.384 . S
C255 C256 1.385 . S
C255 H257 0.950 1_455 S
C256 C250 1.404 . S
C256 H254 0.949 1_455 S
C256 C255 1.385 . S
H257 C255 0.950 1_655 S
H258 C242 0.951 . S
H259 C244 0.951 . S
H260 C246 0.951 . S
H261 C247 0.949 . S
H262 C248 0.950 . S
H263 C249 0.950 . S
H264 C251 0.950 . S
H265 C252 0.951 . S
C85 C51 1.308 . S
C75 N12 1.449 . S
C109 C71 1.450 . S
C99 N25 1.491 . S
C133 C50 1.444 . S
C123 C16 1.467 . S
C157 C72 1.497 . S
C147 C30 1.507 . S
C181 C64 1.504 . S
C171 C7 1.506 . S
C205 C57 1.453 . S
C195 C39 1.437 . S
C229 C65 1.356 . S
C219 N2 1.487 . S
C243 N35 1.428 . S
C253 C58 1.468 . S
