# Generated by pormake.
# Topology pts, (4,4)-cn, num edge types: 1
# Building blocks:
#     Node 0, Type 0, BuildingBlock: MUDLON_clean_sbu_0, # of connection points: 4
#     Node 1, Type 0, BuildingBlock: MUDLON_clean_sbu_0, # of connection points: 4
#     Node 2, Type 1, BuildingBlock: QUQFOY_clean_sbu_1, # of connection points: 4
#     Node 3, Type 1, BuildingBlock: QUQFOY_clean_sbu_1, # of connection points: 4
#     Edge 4, Type (0, 1), BuildingBlock: KIFKEQ_clean_linker_1, # of connection points: 2
#     Edge 5, Type (0, 1), BuildingBlock: KIFKEQ_clean_linker_1, # of connection points: 2
#     Edge 6, Type (0, 1), BuildingBlock: KIFKEQ_clean_linker_1, # of connection points: 2
#     Edge 7, Type (0, 1), BuildingBlock: KIFKEQ_clean_linker_1, # of connection points: 2
#     Edge 8, Type (0, 1), BuildingBlock: KIFKEQ_clean_linker_1, # of connection points: 2
#     Edge 9, Type (0, 1), BuildingBlock: KIFKEQ_clean_linker_1, # of connection points: 2
#     Edge 10, Type (0, 1), BuildingBlock: KIFKEQ_clean_linker_1, # of connection points: 2
#     Edge 11, Type (0, 1), BuildingBlock: KIFKEQ_clean_linker_1, # of connection points: 2
# Relax obj value: 0.129
# Max RMSD: 0.244
# Mean RMSD: 0.144
data_MOF--net-pts--node1-MUDLON_clean_sbu_0--node2-QUQFOY_clean_sbu_1--edge1-KIFKEQ_clean_linker_1
_symmetry_space_group_name_H-M    P1
_symmetry_Int_Tables_number       1
_symmetry_cell_setting            triclinic
loop_
_symmetry_equiv_pos_as_xyz
'x, y, z'
_cell_length_a     22.430568
_cell_length_b     23.926266
_cell_length_c     41.880388
_cell_angle_alpha  90.347986
_cell_angle_beta   90.185897
_cell_angle_gamma 90.007212
loop_
_atom_site_label
_atom_site_type_symbol
_atom_site_fract_x
_atom_site_fract_y
_atom_site_fract_z
_atom_type_partial_charge
Mg0 Mg 0.47882 1.00656 0.01462 0.0
C1 C 0.43153 0.96127 0.95033 0.0
O2 O 0.48219 0.98021 0.93929 0.0
C3 C 0.52206 0.96409 0.07933 0.0
O4 O 0.46863 0.97924 0.0887 0.0
C5 C 0.36749 0.02368 0.04775 0.0
O6 O 0.36414 0.97464 0.03365 0.0
O7 O 0.41405 0.0532 0.04333 0.0
O8 O 0.42295 0.96038 0.98036 0.0
O9 O 0.5454 0.04762 0.98492 0.0
C10 C 0.58366 1.01098 0.97659 0.0
O11 O 0.57932 0.96062 0.9887 0.0
O12 O 0.53393 0.96341 0.04964 0.0
Mg13 Mg 0.00985 0.52725 0.51321 0.0
C14 C 0.06481 0.63721 0.54008 0.0
O15 O 0.05407 0.65755 0.51164 0.0
C16 C 0.05659 0.41687 0.48578 0.0
O17 O 0.04095 0.3974 0.51377 0.0
C18 C -0.00092 0.59889 0.45888 0.0
O19 O 0.05299 0.57742 0.45857 0.0
O20 O 0.96283 0.58253 0.48025 0.0
O21 O 0.05836 0.58505 0.54485 0.0
O22 O 0.96145 0.47378 0.54663 0.0
C23 C -0.00711 0.46427 0.57143 0.0
O24 O 0.04547 0.48804 0.57383 0.0
O25 O 0.05595 0.46942 0.4812 0.0
O26 O 0.89078 0.98651 0.23973 0.0
Cd27 Cd 0.97202 0.97954 0.26223 0.0
Cd28 Cd 0.96392 0.0931 0.25848 0.0
O29 O 0.88143 0.07823 0.23754 0.0
O30 O 0.97199 0.89883 0.2737 0.0
O31 O 0.9749 0.96656 0.3098 0.0
C32 C 0.97214 0.91378 0.30329 0.0
C33 C 0.97825 0.15199 0.30233 0.0
C34 C 0.86122 0.02948 0.23176 0.0
C35 C 0.06542 0.03873 0.22351 0.0
O36 O 0.03718 0.08346 0.22968 0.0
O37 O 0.04802 0.99237 0.235 0.0
O38 O 0.96938 0.17169 0.27409 0.0
O39 O 0.97585 0.09841 0.30603 0.0
O40 O 0.91523 0.07295 0.79672 0.0
Cd41 Cd -0.00861 0.08659 0.77082 0.0
Cd42 Cd 0.98539 0.97283 0.76275 0.0
O43 O 0.90708 0.98204 0.7884 0.0
O44 O -0.01079 0.1681 0.7618 0.0
O45 O 0.98483 0.10362 0.72379 0.0
C46 C 0.98366 0.15582 0.73192 0.0
C47 C -0.00673 0.91082 0.71964 0.0
C48 C 0.88782 0.02718 0.8009 0.0
C49 C 0.09135 1.02047 0.79865 0.0
O50 O 0.06328 0.97803 0.78831 0.0
O51 O 0.07144 0.06947 0.79375 0.0
O52 O 0.98834 0.89334 0.74853 0.0
O53 O -0.01011 0.96401 0.71481 0.0
H54 H 0.25708 0.97976 0.05222 0.0
H55 H 0.37556 0.0976 0.09853 0.0
H56 H 0.18847 0.9867 0.09673 0.0
H57 H 0.30561 0.10484 0.14352 0.0
H58 H 0.12129 0.13112 0.19938 0.0
H59 H 0.19622 0.13396 0.15713 0.0
H60 H 0.19861 0.95364 0.15401 0.0
H61 H 0.12388 0.95048 0.19609 0.0
C62 C 0.26814 1.0078 0.07177 0.0
C63 C 0.32208 0.0377 0.07202 0.0
C64 C 0.22895 1.0114 0.09738 0.0
C65 C 0.24243 0.04521 0.12389 0.0
C66 C 0.29444 0.07815 0.1234 0.0
C67 C 0.33419 0.07428 0.09763 0.0
C68 C 0.13831 0.09202 0.18995 0.0
C69 C 0.11605 0.0405 0.20087 0.0
C70 C 0.18138 0.09379 0.16587 0.0
C71 C 0.20251 0.0441 0.15203 0.0
C72 C 0.18231 0.99264 0.16394 0.0
C73 C 0.13973 0.99083 0.18817 0.0
H74 H 0.02932 0.46275 0.63274 0.0
H75 H 0.92079 0.37144 0.56496 0.0
H76 H 0.0188 0.388 0.67101 0.0
H77 H 0.90909 0.29583 0.60398 0.0
H78 H 0.98438 0.14735 0.66639 0.0
H79 H 0.97456 0.22336 0.62781 0.0
H80 H 0.95049 0.34094 0.70539 0.0
H81 H 0.962 0.26583 0.74367 0.0
C82 C 0.00205 0.42701 0.62628 0.0
C83 C 0.97595 0.4229 0.59585 0.0
C84 C -0.00426 0.38414 0.64834 0.0
C85 C 0.96318 0.33573 0.64061 0.0
C86 C 0.93491 0.3324 0.61054 0.0
C87 C 0.94095 0.37587 0.58837 0.0
C88 C 0.97681 0.18945 0.67512 0.0
C89 C 0.97504 0.20069 0.7081 0.0
C90 C 0.97057 0.23291 0.65302 0.0
C91 C 0.96218 0.28835 0.66351 0.0
C92 C 0.95802 0.29894 0.69648 0.0
C93 C 0.96464 0.25579 0.71846 0.0
H94 H 0.51495 0.95094 0.14409 0.0
H95 H 0.64073 0.97862 0.06781 0.0
H96 H 0.59454 0.96686 0.18339 0.0
H97 H 0.71932 0.99571 0.10709 0.0
H98 H 0.81263 0.09914 0.18723 0.0
H99 H 0.72937 0.07841 0.151 0.0
H100 H 0.70155 0.92068 0.19806 0.0
H101 H 0.78553 0.94062 0.23382 0.0
C102 C 0.55966 0.95951 0.13572 0.0
C103 C 0.57149 0.96348 0.10284 0.0
C104 C 0.605 0.96883 0.15818 0.0
C105 C 0.66258 0.98342 0.14815 0.0
C106 C 0.67498 0.98531 0.11536 0.0
C107 C 0.63009 0.97488 0.09292 0.0
C108 C 0.78811 0.06052 0.19018 0.0
C109 C 0.80559 1.02146 0.21328 0.0
C110 C 0.74092 0.04846 0.16931 0.0
C111 C 0.70963 0.99774 0.17167 0.0
C112 C 0.72506 0.96001 0.1958 0.0
C113 C 0.77304 0.97148 0.2162 0.0
H114 H 0.04221 0.61401 0.60261 0.0
H115 H 0.09224 0.74859 0.53987 0.0
H116 H 0.02692 0.68043 0.64568 0.0
H117 H 0.08021 0.81528 0.58362 0.0
H118 H 0.98055 0.92607 0.65509 0.0
H119 H 0.00484 0.85987 0.61249 0.0
H120 H 0.06583 0.74131 0.68302 0.0
H121 H 0.03819 0.806 0.72524 0.0
C122 C 0.05179 0.65769 0.59827 0.0
C123 C 0.06821 0.67601 0.56773 0.0
C124 C 0.04305 0.69604 0.6231 0.0
C125 C 0.0516 0.7537 0.61825 0.0
C126 C 0.07157 0.77153 0.58813 0.0
C127 C 0.07931 0.73319 0.56311 0.0
C128 C -0.00127 0.88564 0.66136 0.0
C129 C 0.00673 0.87099 0.69349 0.0
C130 C 0.01338 0.84781 0.63695 0.0
C131 C 0.03748 0.79487 0.64412 0.0
C132 C 0.04622 0.78092 0.67639 0.0
C133 C 0.03049 0.81821 0.7007 0.0
H134 H 0.3135 0.9747 0.96421 0.0
H135 H 0.43429 0.94101 0.88625 0.0
H136 H 0.23229 0.98842 0.92603 0.0
H137 H 0.35252 0.9538 0.84816 0.0
H138 H 0.16576 0.93068 0.79731 0.0
H139 H 0.24771 0.90993 0.83398 0.0
H140 H 0.2186 0.06733 0.88232 0.0
H141 H 0.13706 0.08874 0.84527 0.0
C142 C 0.32238 0.96868 0.93901 0.0
C143 C 0.38032 0.95683 0.92819 0.0
C144 C 0.27606 0.97724 0.91719 0.0
C145 C 0.28655 0.97299 0.88423 0.0
C146 C 0.34344 0.95748 0.87348 0.0
C147 C 0.39007 0.94997 0.89526 0.0
C148 C 0.17732 0.96118 0.81553 0.0
C149 C 0.14507 1.01138 0.81845 0.0
C150 C 0.22412 0.94922 0.83647 0.0
C151 C 0.2388 0.98672 0.86112 0.0
C152 C 0.2075 0.03745 0.86369 0.0
C153 C 0.16137 0.04994 0.84233 0.0
H154 H 0.07663 0.30404 0.48582 0.0
H155 H 0.03918 0.44223 0.42306 0.0
H156 H 0.0642 0.23897 0.44125 0.0
H157 H 0.02292 0.37773 0.37917 0.0
H158 H 0.02866 0.25486 0.29851 0.0
H159 H 0.05851 0.31665 0.34184 0.0
H160 H -0.00905 0.19754 0.41017 0.0
H161 H 0.96501 0.1341 0.36647 0.0
C162 C 0.06629 0.32052 0.46241 0.0
C163 C 0.05904 0.37828 0.458 0.0
C164 C 0.05828 0.28316 0.43687 0.0
C165 C 0.04159 0.30258 0.40642 0.0
C166 C 0.03662 0.36072 0.40192 0.0
C167 C 0.04585 0.39803 0.42725 0.0
C168 C 0.02017 0.24194 0.32282 0.0
C169 C -0.00596 0.18985 0.3291 0.0
C170 C 0.03708 0.27757 0.3478 0.0
C171 C 0.02695 0.26274 0.37982 0.0
C172 C 0.00068 0.21033 0.38601 0.0
C173 C 0.98508 0.17406 0.36094 0.0
H174 H 0.60205 0.93589 0.92979 0.0
H175 H 0.65086 0.10259 0.95975 0.0
H176 H 0.66805 0.94239 0.88444 0.0
H177 H 0.72123 0.10815 0.9151 0.0
H178 H 0.81729 0.11465 0.81963 0.0
H179 H 0.73877 0.11412 0.85982 0.0
H180 H 0.76831 0.93731 0.87411 0.0
H181 H 0.84386 0.93755 0.83289 0.0
C182 C 0.62757 0.97394 0.92673 0.0
C183 C 0.62203 1.01853 0.94844 0.0
C184 C 0.6659 0.97754 0.9008 0.0
C185 C 0.70135 0.02524 0.89631 0.0
C186 C 0.69446 0.07081 0.91759 0.0
C187 C 0.65452 0.06768 0.94328 0.0
C188 C 0.80616 0.07555 0.83108 0.0
C189 C 0.83647 0.02603 0.82296 0.0
C190 C 0.76156 0.07535 0.85437 0.0
C191 C 0.74689 0.02575 0.87041 0.0
C192 C 0.77704 0.97618 0.86188 0.0
C193 C 0.82073 0.97622 0.83824 0.0
H194 H 0.07915 0.67654 0.44118 0.0
H195 H 0.89282 0.63353 0.43215 0.0
H196 H 0.06429 0.75682 0.40678 0.0
H197 H 0.87827 0.71413 0.39646 0.0
H198 H 0.93062 0.80735 0.29752 0.0
H199 H 0.92759 0.73505 0.33845 0.0
H200 H 0.00148 0.8512 0.40714 0.0
H201 H 0.00342 0.92426 0.36631 0.0
C202 C 0.03485 0.68435 0.43182 0.0
C203 C 0.98715 0.64856 0.4391 0.0
C204 C 0.02635 0.73064 0.41236 0.0
C205 C 0.97019 0.74169 0.39912 0.0
C206 C 0.92201 0.70638 0.40653 0.0
C207 C 0.93025 0.6605 0.42685 0.0
C208 C 0.94572 0.81766 0.32143 0.0
C209 C 0.96793 0.87127 0.32866 0.0
C210 C 0.94332 0.77644 0.34489 0.0
C211 C 0.96408 0.78772 0.37588 0.0
C212 C 0.98507 0.84163 0.38337 0.0
C213 C 0.98634 0.88328 0.36004 0.0
loop_
_geom_bond_atom_site_label_1
_geom_bond_atom_site_label_2
_geom_bond_distance
_geom_bond_site_symmetry_2
_ccdc_geom_bond_type
Mg0 O7 2.141 . S
Mg0 O8 2.048 1_554 S
Mg0 O9 2.048 1_554 S
Mg0 O12 2.141 . S
C1 O2 1.313 . S
C1 O8 1.195 1_565 S
O2 C1 1.313 . S
C3 O4 1.245 . S
C3 O12 1.289 1_565 S
O4 C3 1.245 . S
C5 O6 1.245 . S
C5 O7 1.289 1_565 S
O6 C5 1.245 . S
O7 Mg0 2.141 . S
O7 C5 1.289 1_545 S
O8 Mg0 2.048 1_556 S
O8 C1 1.195 1_545 S
O9 Mg0 2.048 1_556 S
O9 C10 1.195 1_545 S
C10 O9 1.195 1_565 S
C10 O11 1.313 . S
O11 C10 1.313 . S
O12 Mg0 2.141 . S
O12 C3 1.289 1_545 S
Mg13 O20 2.141 . S
Mg13 O21 2.048 . S
Mg13 O22 2.048 . S
Mg13 O25 2.141 . S
C14 O15 1.313 . S
C14 O21 1.195 1_455 S
O15 C14 1.313 . S
C16 O17 1.245 . S
C16 O25 1.289 1_455 S
O17 C16 1.245 . S
C18 O19 1.245 . S
C18 O20 1.289 1_455 S
O19 C18 1.245 . S
O20 Mg13 2.141 . S
O20 C18 1.289 1_655 S
O21 Mg13 2.048 . S
O21 C14 1.195 1_655 S
O22 Mg13 2.048 . S
O22 C23 1.195 1_655 S
C23 O22 1.195 1_455 S
C23 O24 1.313 . S
O24 C23 1.313 . S
O25 Mg13 2.141 . S
O25 C16 1.289 1_655 S
O26 Cd27 2.223 1_655 S
O26 C34 1.315 . S
Cd27 O26 2.223 1_455 S
Cd27 O30 2.297 1_455 S
Cd27 O31 2.439 1_455 S
Cd27 O37 2.240 1_565 S
Cd28 O29 2.240 1_545 S
Cd28 O36 2.223 1_655 S
Cd28 O38 2.297 1_655 S
Cd28 O39 2.439 1_655 S
O29 Cd28 2.240 1_565 S
O29 C34 1.279 . S
O30 Cd27 2.297 1_655 S
O30 C32 1.247 . S
O31 Cd27 2.439 1_655 S
O31 C32 1.208 . S
C32 O30 1.247 . S
C32 O31 1.208 . S
C33 O38 1.247 . S
C33 O39 1.208 . S
C34 O26 1.315 . S
C34 O29 1.279 . S
C35 O36 1.315 . S
C35 O37 1.279 . S
O36 Cd28 2.223 1_455 S
O36 C35 1.315 . S
O37 Cd27 2.240 1_545 S
O37 C35 1.279 . S
O38 Cd28 2.297 1_455 S
O38 C33 1.247 . S
O39 Cd28 2.439 1_455 S
O39 C33 1.208 . S
O40 Cd41 2.223 1_655 S
O40 C48 1.315 . S
Cd41 O40 2.223 1_455 S
Cd41 O44 2.297 1_455 S
Cd41 O45 2.439 1_455 S
Cd41 O51 2.240 1_545 S
Cd42 O43 2.240 1_565 S
Cd42 O50 2.223 1_655 S
Cd42 O52 2.297 1_655 S
Cd42 O53 2.439 1_655 S
O43 Cd42 2.240 1_545 S
O43 C48 1.279 . S
O44 Cd41 2.297 1_655 S
O44 C46 1.247 . S
O45 Cd41 2.439 1_655 S
O45 C46 1.208 . S
C46 O44 1.247 . S
C46 O45 1.208 . S
C47 O52 1.247 . S
C47 O53 1.208 . S
C48 O40 1.315 . S
C48 O43 1.279 . S
C49 O50 1.315 . S
C49 O51 1.279 . S
O50 Cd42 2.223 1_455 S
O50 C49 1.315 . S
O51 Cd41 2.240 1_565 S
O51 C49 1.279 . S
O52 Cd42 2.297 1_455 S
O52 C47 1.247 . S
O53 Cd42 2.439 1_455 S
O53 C47 1.208 . S
H54 C62 0.950 . S
H55 C67 0.950 . S
H56 C64 0.950 . S
H57 C66 0.950 . S
H58 C68 0.950 . S
H59 C70 0.950 . S
H60 C72 0.950 . S
H61 C73 0.950 . S
C62 H54 0.950 . S
C62 C63 1.386 1_565 S
C62 C64 1.391 . S
C63 C62 1.386 1_545 S
C63 C67 1.393 . S
C64 H56 0.950 . S
C64 C62 1.391 . S
C64 C65 1.400 1_565 S
C65 C64 1.400 1_545 S
C65 C66 1.398 . S
C65 C71 1.491 . S
C66 H57 0.950 . S
C66 C65 1.398 . S
C66 C67 1.391 . S
C67 H55 0.950 . S
C67 C63 1.393 . S
C67 C66 1.391 . S
C68 H58 0.950 . S
C68 C69 1.386 . S
C68 C70 1.391 . S
C69 C68 1.386 . S
C69 C73 1.393 1_545 S
C70 H59 0.950 . S
C70 C68 1.391 . S
C70 C71 1.400 . S
C71 C65 1.491 . S
C71 C70 1.400 . S
C71 C72 1.398 1_545 S
C72 H60 0.950 . S
C72 C71 1.398 1_565 S
C72 C73 1.391 . S
C73 H61 0.950 . S
C73 C69 1.393 1_565 S
C73 C72 1.391 . S
H74 C82 0.950 . S
H75 C87 0.950 . S
H76 C84 0.950 . S
H77 C86 0.950 . S
H78 C88 0.950 . S
H79 C90 0.950 . S
H80 C92 0.950 . S
H81 C93 0.950 . S
C82 H74 0.950 . S
C82 C83 1.386 1_455 S
C82 C84 1.391 . S
C83 C82 1.386 1_655 S
C83 C87 1.393 . S
C84 H76 0.950 . S
C84 C82 1.391 . S
C84 C85 1.400 1_455 S
C85 C84 1.400 1_655 S
C85 C86 1.398 . S
C85 C91 1.491 . S
C86 H77 0.950 . S
C86 C85 1.398 . S
C86 C87 1.391 . S
C87 H75 0.950 . S
C87 C83 1.393 . S
C87 C86 1.391 . S
C88 H78 0.950 . S
C88 C89 1.386 . S
C88 C90 1.391 . S
C89 C88 1.386 . S
C89 C93 1.393 1_655 S
C90 H79 0.950 . S
C90 C88 1.391 . S
C90 C91 1.400 . S
C91 C85 1.491 . S
C91 C90 1.400 . S
C91 C92 1.398 1_655 S
C92 H80 0.950 . S
C92 C91 1.398 1_455 S
C92 C93 1.391 . S
C93 H81 0.950 . S
C93 C89 1.393 1_455 S
C93 C92 1.391 . S
H94 C102 0.950 . S
H95 C107 0.950 . S
H96 C104 0.950 . S
H97 C106 0.950 . S
H98 C108 0.950 . S
H99 C110 0.950 . S
H100 C112 0.950 . S
H101 C113 0.950 . S
C102 H94 0.950 . S
C102 C103 1.386 . S
C102 C104 1.391 . S
C103 C102 1.386 . S
C103 C107 1.393 1_565 S
C104 H96 0.950 . S
C104 C102 1.391 . S
C104 C105 1.400 . S
C105 C104 1.400 . S
C105 C106 1.398 1_565 S
C105 C111 1.491 . S
C106 H97 0.950 . S
C106 C105 1.398 1_545 S
C106 C107 1.391 . S
C107 H95 0.950 . S
C107 C103 1.393 1_545 S
C107 C106 1.391 . S
C108 H98 0.950 . S
C108 C109 1.386 1_545 S
C108 C110 1.391 . S
C109 C108 1.386 1_565 S
C109 C113 1.393 . S
C110 H99 0.950 . S
C110 C108 1.391 . S
C110 C111 1.400 1_545 S
C111 C105 1.491 . S
C111 C110 1.400 1_565 S
C111 C112 1.398 . S
C112 H100 0.950 . S
C112 C111 1.398 . S
C112 C113 1.391 . S
C113 H101 0.950 . S
C113 C109 1.393 . S
C113 C112 1.391 . S
H114 C122 0.950 . S
H115 C127 0.950 . S
H116 C124 0.948 1_655 S
H117 C126 0.950 . S
H118 C128 0.950 . S
H119 C130 0.950 . S
H120 C132 0.950 . S
H121 C133 0.950 . S
C122 H114 0.950 . S
C122 C123 1.386 1_655 S
C122 C124 1.391 1_655 S
C123 C122 1.386 1_455 S
C123 C127 1.393 . S
C124 H116 0.948 1_455 S
C124 C122 1.391 1_455 S
C124 C125 1.400 . S
C125 C124 1.400 . S
C125 C126 1.398 . S
C125 C131 1.491 . S
C126 H117 0.950 . S
C126 C125 1.398 . S
C126 C127 1.391 . S
C127 H115 0.950 . S
C127 C123 1.393 . S
C127 C126 1.391 . S
C128 H118 0.950 . S
C128 C129 1.386 . S
C128 C130 1.391 . S
C129 C128 1.386 . S
C129 C133 1.393 . S
C130 H119 0.950 . S
C130 C128 1.391 . S
C130 C131 1.400 . S
C131 C125 1.491 . S
C131 C130 1.400 . S
C131 C132 1.398 . S
C132 H120 0.950 . S
C132 C131 1.398 . S
C132 C133 1.391 . S
C133 H121 0.950 . S
C133 C129 1.393 . S
C133 C132 1.391 . S
H134 C142 0.950 . S
H135 C147 0.950 . S
H136 C144 0.950 . S
H137 C146 0.950 . S
H138 C148 0.950 . S
H139 C150 0.950 . S
H140 C152 0.950 . S
H141 C153 0.946 1_545 S
C142 H134 0.950 . S
C142 C143 1.386 1_545 S
C142 C144 1.391 . S
C143 C142 1.386 1_565 S
C143 C147 1.393 . S
C144 H136 0.950 . S
C144 C142 1.391 . S
C144 C145 1.400 1_545 S
C145 C144 1.400 1_565 S
C145 C146 1.398 . S
C145 C151 1.491 . S
C146 H137 0.950 . S
C146 C145 1.398 . S
C146 C147 1.391 . S
C147 H135 0.950 . S
C147 C143 1.393 . S
C147 C146 1.391 . S
C148 H138 0.950 . S
C148 C149 1.386 . S
C148 C150 1.391 . S
C149 C148 1.386 . S
C149 C153 1.398 . S
C150 H139 0.950 . S
C150 C148 1.391 . S
C150 C151 1.400 . S
C151 C145 1.491 . S
C151 C150 1.400 . S
C151 C152 1.398 1_565 S
C152 H140 0.950 . S
C152 C151 1.398 1_545 S
C152 C153 1.390 1_545 S
C153 H141 0.946 1_565 S
C153 C149 1.398 . S
C153 C152 1.390 1_565 S
H154 C162 0.950 . S
H155 C167 0.950 . S
H156 C164 0.950 . S
H157 C166 0.950 . S
H158 C168 0.950 . S
H159 C170 0.948 1_655 S
H160 C172 0.950 . S
H161 C173 0.950 . S
C162 H154 0.950 . S
C162 C163 1.386 . S
C162 C164 1.391 . S
C163 C162 1.386 . S
C163 C167 1.393 1_455 S
C164 H156 0.950 . S
C164 C162 1.391 . S
C164 C165 1.400 . S
C165 C164 1.400 . S
C165 C166 1.398 1_455 S
C165 C171 1.491 . S
C166 H157 0.950 . S
C166 C165 1.398 1_655 S
C166 C167 1.391 . S
C167 H155 0.950 . S
C167 C163 1.393 1_655 S
C167 C166 1.391 . S
C168 H158 0.950 . S
C168 C169 1.386 . S
C168 C170 1.391 . S
C169 C168 1.386 . S
C169 C173 1.393 . S
C170 H159 0.948 1_455 S
C170 C168 1.391 . S
C170 C171 1.400 . S
C171 C165 1.491 . S
C171 C170 1.400 . S
C171 C172 1.398 . S
C172 H160 0.950 . S
C172 C171 1.398 . S
C172 C173 1.391 . S
C173 H161 0.950 . S
C173 C169 1.393 . S
C173 C172 1.391 . S
H174 C182 0.950 . S
H175 C187 0.950 . S
H176 C184 0.950 . S
H177 C186 0.950 . S
H178 C188 0.950 . S
H179 C190 0.950 . S
H180 C192 0.950 . S
H181 C193 0.950 . S
C182 H174 0.950 . S
C182 C183 1.386 1_565 S
C182 C184 1.391 . S
C183 C182 1.386 1_545 S
C183 C187 1.393 . S
C184 H176 0.950 . S
C184 C182 1.391 . S
C184 C185 1.400 1_565 S
C185 C184 1.400 1_545 S
C185 C186 1.398 . S
C185 C191 1.491 . S
C186 H177 0.950 . S
C186 C185 1.398 . S
C186 C187 1.391 . S
C187 H175 0.950 . S
C187 C183 1.393 . S
C187 C186 1.391 . S
C188 H178 0.950 . S
C188 C189 1.386 . S
C188 C190 1.391 . S
C189 C188 1.386 . S
C189 C193 1.393 1_545 S
C190 H179 0.950 . S
C190 C188 1.391 . S
C190 C191 1.400 . S
C191 C185 1.491 . S
C191 C190 1.400 . S
C191 C192 1.398 1_545 S
C192 H180 0.950 . S
C192 C191 1.398 1_565 S
C192 C193 1.391 . S
C193 H181 0.950 . S
C193 C189 1.393 1_565 S
C193 C192 1.391 . S
H194 C202 0.950 . S
H195 C207 0.950 . S
H196 C204 0.950 . S
H197 C206 0.950 . S
H198 C208 0.950 . S
H199 C210 0.950 . S
H200 C212 0.950 . S
H201 C213 0.950 . S
C202 H194 0.950 . S
C202 C203 1.386 1_455 S
C202 C204 1.391 . S
C203 C202 1.386 1_655 S
C203 C207 1.393 . S
C204 H196 0.950 . S
C204 C202 1.391 . S
C204 C205 1.400 1_455 S
C205 C204 1.400 1_655 S
C205 C206 1.398 . S
C205 C211 1.491 . S
C206 H197 0.950 . S
C206 C205 1.398 . S
C206 C207 1.391 . S
C207 H195 0.950 . S
C207 C203 1.393 . S
C207 C206 1.391 . S
C208 H198 0.950 . S
C208 C209 1.386 . S
C208 C210 1.391 . S
C209 C208 1.386 . S
C209 C213 1.393 1_655 S
C210 H199 0.950 . S
C210 C208 1.391 . S
C210 C211 1.400 . S
C211 C205 1.491 . S
C211 C210 1.400 . S
C211 C212 1.398 1_655 S
C212 H200 0.950 . S
C212 C211 1.398 1_455 S
C212 C213 1.391 . S
C213 H201 0.950 . S
C213 C209 1.393 1_455 S
C213 C212 1.391 . S
C69 C35 1.494 . S
C63 C5 1.486 1_545 S
C89 C46 1.527 . S
C83 C23 1.585 1_655 S
C109 C34 1.494 . S
C103 C3 1.477 . S
C129 C47 1.516 . S
C123 C14 1.566 . S
C149 C49 1.554 . S
C143 C1 1.544 . S
C169 C33 1.471 . S
C163 C16 1.500 . S
C189 C48 1.554 . S
C183 C10 1.552 1_545 S
C203 C18 1.513 1_655 S
C209 C32 1.467 . S
