# Generated by pormake.
# Topology pts, (4,4)-cn, num edge types: 1
# Building blocks:
#     Node 0, Type 0, BuildingBlock: ESEHIV_clean_sbu_0, # of connection points: 4
#     Node 1, Type 0, BuildingBlock: ESEHIV_clean_sbu_0, # of connection points: 4
#     Node 2, Type 1, BuildingBlock: QUQFOY_clean_sbu_1, # of connection points: 4
#     Node 3, Type 1, BuildingBlock: QUQFOY_clean_sbu_1, # of connection points: 4
#     Edge 4, Type (0, 1), BuildingBlock: AJUNOK_clean_linker_0, # of connection points: 2
#     Edge 5, Type (0, 1), BuildingBlock: AJUNOK_clean_linker_0, # of connection points: 2
#     Edge 6, Type (0, 1), BuildingBlock: AJUNOK_clean_linker_0, # of connection points: 2
#     Edge 7, Type (0, 1), BuildingBlock: AJUNOK_clean_linker_0, # of connection points: 2
#     Edge 8, Type (0, 1), BuildingBlock: AJUNOK_clean_linker_0, # of connection points: 2
#     Edge 9, Type (0, 1), BuildingBlock: AJUNOK_clean_linker_0, # of connection points: 2
#     Edge 10, Type (0, 1), BuildingBlock: AJUNOK_clean_linker_0, # of connection points: 2
#     Edge 11, Type (0, 1), BuildingBlock: AJUNOK_clean_linker_0, # of connection points: 2
# Relax obj value: 0.096
# Max RMSD: 0.249
# Mean RMSD: 0.176
data_MOF--net-pts--node1-ESEHIV_clean_sbu_0--node2-QUQFOY_clean_sbu_1--edge1-AJUNOK_clean_linker_0
_symmetry_space_group_name_H-M    P1
_symmetry_Int_Tables_number       1
_symmetry_cell_setting            triclinic
loop_
_symmetry_equiv_pos_as_xyz
'x, y, z'
_cell_length_a     18.015698
_cell_length_b     19.10329
_cell_length_c     29.17219
_cell_angle_alpha  94.547411
_cell_angle_beta   95.113498
_cell_angle_gamma 90.098781
loop_
_atom_site_label
_atom_site_type_symbol
_atom_site_fract_x
_atom_site_fract_y
_atom_site_fract_z
_atom_type_partial_charge
Cu0 Cu 0.58275 0.12825 0.04262 0.0
N1 N 0.64941 0.17838 1.01205 0.0
N2 N 0.73678 0.1886 0.96328 0.0
C3 C 0.69861 0.14453 0.98649 0.0
C4 C 0.71164 0.25337 0.97553 0.0
C5 C 0.65716 0.24688 1.00551 0.0
O6 O 0.64588 0.07367 0.08371 0.0
C7 C 0.48623 0.12208 0.96725 0.0
O8 O 0.50203 0.18925 0.97567 0.0
H9 H 0.70585 0.08822 0.98508 0.0
H10 H 0.62413 0.28875 1.02007 0.0
N11 N 0.5202 0.18073 0.07951 0.0
N12 N 0.43277 0.19546 0.12902 0.0
C13 C 0.46665 0.14982 0.10026 0.0
C14 C 0.52048 0.24879 0.09548 0.0
C15 C 0.46652 0.25802 0.1262 0.0
C16 C 0.68017 0.11382 0.11578 0.0
O17 O 0.66767 0.18159 0.11686 0.0
H18 H 0.45378 0.09425 0.09483 0.0
H19 H 0.55919 0.28815 0.08721 0.0
O20 O 0.51643 0.07907 0.99442 0.0
H21 H 0.72981 0.30162 0.96273 0.0
H22 H 0.4555 0.30632 0.14632 0.0
Cu23 Cu 0.04784 0.60602 0.54279 0.0
N24 N 0.98896 0.54855 0.57352 0.0
N25 N 0.97558 0.46084 0.61855 0.0
C26 C 0.0192 0.51412 0.60894 0.0
C27 C 0.91509 0.46155 0.58773 0.0
C28 C 0.92346 0.51599 0.5599 0.0
O29 O 0.09807 0.53956 0.50228 0.0
C30 C 0.12624 0.7245 0.58851 0.0
O31 O 0.12748 0.74735 0.54732 0.0
H32 H 0.07566 0.52363 0.62422 0.0
H33 H 0.8875 0.52714 0.5297 0.0
N34 N -0.00436 0.67015 0.50715 0.0
N35 N 0.98562 0.7535 0.45732 0.0
C36 C 0.02232 0.69576 0.47013 0.0
C37 C 0.93952 0.71283 0.51816 0.0
C38 C 0.93324 0.76447 0.48742 0.0
C39 C 0.05518 0.51348 0.468 0.0
O40 O 0.98709 0.53739 0.46158 0.0
H41 H 0.07274 0.67661 0.45603 0.0
H42 H 0.9094 0.7099 0.54842 0.0
O43 O 0.10733 0.66098 0.59181 0.0
H44 H 0.87014 0.42329 0.58401 0.0
H45 H 0.89581 0.80871 0.48863 0.0
O46 O 0.99443 1.02913 0.22776 0.0
Cd47 Cd 0.09033 1.02101 0.27074 0.0
Cd48 Cd 0.06588 0.16056 0.29417 0.0
O49 O 0.96153 0.12776 0.26451 0.0
O50 O 0.0947 0.92173 0.28693 0.0
O51 O 0.07472 1.01125 0.33718 0.0
C52 C 0.07848 0.94405 0.32778 0.0
C53 C 0.07112 0.25982 0.34785 0.0
C54 C 0.94592 0.07576 0.23514 0.0
C55 C 0.19713 0.11862 0.23887 0.0
O56 O 0.15124 0.1645 0.25216 0.0
O57 O 0.18871 0.05488 0.24735 0.0
O58 O 0.05012 0.26348 0.30487 0.0
O59 O 0.08666 0.19843 0.3614 0.0
O60 O 0.01597 0.16193 0.83836 0.0
Cd61 Cd 0.09616 0.15985 0.79232 0.0
Cd62 Cd 0.07921 1.01996 0.80179 0.0
O63 O 0.98111 0.05079 0.82943 0.0
O64 O 0.10045 0.26135 0.78083 0.0
O65 O 0.06218 0.17954 0.72642 0.0
C66 C 0.07272 0.2454 0.73913 0.0
C67 C 0.08732 0.93429 0.74088 0.0
C68 C 0.97135 0.1135 0.84584 0.0
C69 C 0.22301 0.08509 0.8404 0.0
O70 O 0.17697 1.03566 0.84342 0.0
O71 O 0.20407 0.13643 0.81673 0.0
O72 O 0.07627 0.91768 0.78178 0.0
O73 O 0.08909 1.00036 0.73403 0.0
C74 C 0.37384 0.11248 0.17609 0.0
C75 C 0.37528 0.17863 0.15792 0.0
C76 C 0.31669 0.09361 0.20254 0.0
C77 C 0.25869 0.14025 0.21205 0.0
H78 H 0.41745 0.0749 0.16994 0.0
H79 H 0.31804 0.04202 0.21552 0.0
S80 S 0.23557 0.31934 0.1712 0.0
N81 N 0.31281 0.29007 0.15028 0.0
N82 N 0.20619 0.25589 0.20048 0.0
C83 C 0.25989 0.20696 0.19432 0.0
C84 C 0.31795 0.22586 0.16723 0.0
C85 C 0.98399 0.33617 0.63615 0.0
C86 C -0.00297 0.40781 0.64961 0.0
C87 C 0.00991 0.28389 0.66481 0.0
C88 C 0.0495 0.3013 0.70813 0.0
H89 H 0.95499 0.32039 0.60282 0.0
H90 H -0.00156 0.22946 0.65294 0.0
S91 S 0.09528 0.4822 0.75982 0.0
N92 N 0.04979 0.49371 0.70937 0.0
N93 N 0.09901 0.39639 0.76311 0.0
C94 C 0.06222 0.37308 0.72199 0.0
C95 C 0.03589 0.42601 0.6928 0.0
C96 C 0.7514 0.12793 0.19226 0.0
C97 C 0.73889 0.08939 0.14917 0.0
C98 C 0.81662 0.11993 0.2209 0.0
C99 C 0.8724 0.07315 0.2076 0.0
H100 H 0.71203 0.16745 0.203 0.0
H101 H 0.82461 0.15317 0.25284 0.0
S102 S 0.86226 0.95339 0.10036 0.0
N103 N 0.78371 0.99786 0.09624 0.0
N104 N 0.90708 0.98211 0.1502 0.0
C105 C 0.85802 1.03012 0.1661 0.0
C106 C 0.79099 0.03836 0.13684 0.0
C107 C 0.12778 0.84868 0.62351 0.0
C108 C 0.12584 0.77623 0.62949 0.0
C109 C 0.11535 0.89907 0.65961 0.0
C110 C 0.10056 0.87939 0.70339 0.0
H111 H 0.13668 0.86697 0.59021 0.0
H112 H 0.11648 0.95397 0.65281 0.0
S113 S 0.09503 0.69665 0.73851 0.0
N114 N 0.1122 0.68756 0.68375 0.0
N115 N 0.08888 0.78201 0.75145 0.0
C116 C 0.10103 0.80718 0.71043 0.0
C117 C 0.1138 0.75578 0.67362 0.0
C118 C 0.37376 0.05087 0.93559 0.0
C119 C 0.42833 0.1011 0.92968 0.0
C120 C 0.30892 0.04329 0.90501 0.0
C121 C 0.29669 0.08575 0.86762 0.0
H122 H 0.37877 1.02064 0.96559 0.0
H123 H 0.26643 1.00658 0.91226 0.0
S124 S 0.43035 0.21525 0.83265 0.0
N125 N 0.47136 0.18665 0.88041 0.0
N126 N 0.35008 0.17251 0.82304 0.0
C127 C 0.35397 0.13196 0.85942 0.0
C128 C 0.41967 0.13956 0.89044 0.0
C129 C 0.05416 0.45115 0.39061 0.0
C130 C 0.07531 0.45201 0.43809 0.0
C131 C 0.05536 0.38912 0.36189 0.0
C132 C 0.07651 0.32485 0.37958 0.0
H133 H 0.03375 0.49849 0.37577 0.0
H134 H 0.03703 0.39149 0.32567 0.0
S135 S 0.13945 0.29997 0.50191 0.0
N136 N 0.12069 0.3846 0.50178 0.0
N137 N 0.1226 0.267 0.44785 0.0
C138 C 0.10055 0.3255 0.42695 0.0
C139 C 0.1001 0.38935 0.4562 0.0
C140 C 0.85524 0.2137 0.93128 0.0
C141 C 0.79289 0.16988 0.93228 0.0
C142 C 0.91221 0.19494 0.9031 0.0
C143 C 0.90925 0.13144 0.87477 0.0
H144 H 0.86082 0.26219 0.95322 0.0
H145 H 0.95955 0.23024 0.90414 0.0
S146 S 0.75381 1.00172 0.86113 0.0
N147 N 0.72833 0.06289 0.89967 0.0
N148 N 0.8362 1.02684 0.84746 0.0
C149 C 0.84633 0.08779 0.87469 0.0
C150 C 0.78799 0.1072 0.9032 0.0
C151 C 0.00649 0.87342 0.43422 0.0
C152 C 0.00788 0.80017 0.42434 0.0
C153 C 0.03147 0.9194 0.40348 0.0
C154 C 0.05855 0.894 0.36148 0.0
H155 H 0.987 0.8954 0.46629 0.0
H156 H 0.02867 0.97535 0.41258 0.0
S157 S 0.07183 0.70608 0.31907 0.0
N158 N 0.03702 0.70424 0.36942 0.0
N159 N 0.08455 0.78994 0.31179 0.0
C160 C 0.06025 0.82063 0.35131 0.0
C161 C 0.03482 0.77397 0.38266 0.0
loop_
_geom_bond_atom_site_label_1
_geom_bond_atom_site_label_2
_geom_bond_distance
_geom_bond_site_symmetry_2
_ccdc_geom_bond_type
Cu0 N1 1.999 1_554 S
Cu0 O6 1.974 . S
Cu0 N11 1.985 . S
Cu0 O20 1.959 1_554 S
N1 Cu0 1.999 1_556 S
N1 C3 1.263 . S
N1 C5 1.389 . S
N2 C3 1.358 . S
N2 C4 1.400 . S
C3 N1 1.263 . S
C3 N2 1.358 . S
C3 H9 0.930 . S
C4 N2 1.400 . S
C4 C5 1.351 . S
C4 H21 0.930 . S
C5 N1 1.389 . S
C5 C4 1.351 . S
C5 H10 0.930 . S
O6 Cu0 1.974 . S
O6 C16 1.282 . S
C7 O8 1.261 . S
C7 O20 1.251 . S
O8 C7 1.261 . S
H9 C3 0.930 . S
H10 C5 0.930 . S
N11 Cu0 1.985 . S
N11 C13 1.335 . S
N11 C14 1.390 . S
N12 C13 1.345 . S
N12 C15 1.336 . S
C13 N11 1.335 . S
C13 N12 1.345 . S
C13 H18 0.930 . S
C14 N11 1.390 . S
C14 C15 1.346 . S
C14 H19 0.930 . S
C15 N12 1.336 . S
C15 C14 1.346 . S
C15 H22 0.929 . S
C16 O6 1.282 . S
C16 O17 1.216 . S
O17 C16 1.216 . S
H18 C13 0.930 . S
H19 C14 0.930 . S
O20 Cu0 1.959 1_556 S
O20 C7 1.251 . S
H21 C4 0.930 . S
H22 C15 0.929 . S
Cu23 N24 1.999 . S
Cu23 O29 1.974 . S
Cu23 N34 1.985 . S
Cu23 O43 1.959 . S
N24 Cu23 1.999 . S
N24 C26 1.263 . S
N24 C28 1.389 1_455 S
N25 C26 1.358 . S
N25 C27 1.400 1_455 S
C26 N24 1.263 . S
C26 N25 1.358 . S
C26 H32 0.930 . S
C27 N25 1.400 1_655 S
C27 C28 1.351 . S
C27 H44 0.930 . S
C28 N24 1.389 1_655 S
C28 C27 1.351 . S
C28 H33 0.930 . S
O29 Cu23 1.974 . S
O29 C39 1.282 . S
C30 O31 1.261 . S
C30 O43 1.251 . S
O31 C30 1.261 . S
H32 C26 0.930 . S
H33 C28 0.930 . S
N34 Cu23 1.985 . S
N34 C36 1.335 . S
N34 C37 1.390 . S
N35 C36 1.345 . S
N35 C38 1.336 . S
C36 N34 1.335 . S
C36 N35 1.345 . S
C36 H41 0.930 1_455 S
C37 N34 1.390 . S
C37 C38 1.346 . S
C37 H42 0.930 . S
C38 N35 1.336 . S
C38 C37 1.346 . S
C38 H45 0.929 . S
C39 O29 1.282 . S
C39 O40 1.216 . S
O40 C39 1.216 . S
H41 C36 0.930 1_655 S
H42 C37 0.930 . S
O43 Cu23 1.959 . S
O43 C30 1.251 . S
H44 C27 0.930 . S
H45 C38 0.929 . S
O46 Cd47 2.223 . S
O46 C54 1.315 1_465 S
Cd47 O46 2.223 . S
Cd47 O50 2.297 . S
Cd47 O51 2.439 1_565 S
Cd47 O57 2.240 1_565 S
Cd48 O49 2.240 1_455 S
Cd48 O56 2.223 . S
Cd48 O58 2.297 . S
Cd48 O59 2.439 . S
O49 Cd48 2.240 1_655 S
O49 C54 1.279 . S
O50 Cd47 2.297 . S
O50 C52 1.247 . S
O51 Cd47 2.439 1_545 S
O51 C52 1.208 1_545 S
C52 O50 1.247 . S
C52 O51 1.208 1_565 S
C53 O58 1.247 . S
C53 O59 1.208 . S
C54 O46 1.315 1_645 S
C54 O49 1.279 . S
C55 O56 1.315 . S
C55 O57 1.279 . S
O56 Cd48 2.223 . S
O56 C55 1.315 . S
O57 Cd47 2.240 1_545 S
O57 C55 1.279 . S
O58 Cd48 2.297 . S
O58 C53 1.247 . S
O59 Cd48 2.439 . S
O59 C53 1.208 . S
O60 Cd61 2.223 . S
O60 C68 1.315 . S
Cd61 O60 2.223 . S
Cd61 O64 2.297 . S
Cd61 O65 2.439 . S
Cd61 O71 2.240 . S
Cd62 O63 2.240 1_565 S
Cd62 O70 2.223 . S
Cd62 O72 2.297 . S
Cd62 O73 2.439 . S
O63 Cd62 2.240 1_545 S
O63 C68 1.279 . S
O64 Cd61 2.297 . S
O64 C66 1.247 . S
O65 Cd61 2.439 . S
O65 C66 1.208 . S
C66 O64 1.247 . S
C66 O65 1.208 . S
C67 O72 1.247 . S
C67 O73 1.208 . S
C68 O60 1.315 . S
C68 O63 1.279 . S
C69 O70 1.315 1_545 S
C69 O71 1.279 . S
O70 Cd62 2.223 . S
O70 C69 1.315 1_565 S
O71 Cd61 2.240 . S
O71 C69 1.279 . S
O72 Cd62 2.297 . S
O72 C67 1.247 . S
O73 Cd62 2.439 . S
O73 C67 1.208 . S
C74 C75 1.369 . S
C74 C76 1.419 . S
C74 H78 0.930 . S
C75 C74 1.369 . S
C75 C84 1.429 . S
C76 C74 1.419 . S
C76 C77 1.363 . S
C76 H79 0.929 . S
C77 C76 1.363 . S
C77 C83 1.428 . S
H78 C74 0.930 . S
H79 C76 0.929 . S
S80 N81 1.613 . S
S80 N82 1.610 . S
N81 S80 1.613 . S
N81 C84 1.350 . S
N82 S80 1.610 . S
N82 C83 1.351 . S
C83 C77 1.428 . S
C83 N82 1.351 . S
C83 C84 1.434 . S
C84 C75 1.429 . S
C84 N81 1.350 . S
C84 C83 1.434 . S
C85 C86 1.369 1_655 S
C85 C87 1.419 . S
C85 H89 0.930 . S
C86 C85 1.369 1_455 S
C86 C95 1.429 . S
C87 C85 1.419 . S
C87 C88 1.363 1_655 S
C87 H90 0.929 . S
C88 C87 1.363 1_455 S
C88 C94 1.428 . S
H89 C85 0.930 . S
H90 C87 0.929 . S
S91 N92 1.613 . S
S91 N93 1.610 . S
N92 S91 1.613 . S
N92 C95 1.350 . S
N93 S91 1.610 . S
N93 C94 1.351 . S
C94 C88 1.428 . S
C94 N93 1.351 . S
C94 C95 1.434 . S
C95 C86 1.429 . S
C95 N92 1.350 . S
C95 C94 1.434 . S
C96 C97 1.369 . S
C96 C98 1.419 . S
C96 H100 0.930 . S
C97 C96 1.369 . S
C97 C106 1.429 . S
C98 C96 1.419 . S
C98 C99 1.363 . S
C98 H101 0.929 . S
C99 C98 1.363 . S
C99 C105 1.428 . S
H100 C96 0.930 . S
H101 C98 0.929 . S
S102 N103 1.613 1_565 S
S102 N104 1.610 1_565 S
N103 S102 1.613 1_545 S
N103 C106 1.350 . S
N104 S102 1.610 1_545 S
N104 C105 1.351 . S
C105 C99 1.428 . S
C105 N104 1.351 . S
C105 C106 1.434 . S
C106 C97 1.429 . S
C106 N103 1.350 . S
C106 C105 1.434 . S
C107 C108 1.369 . S
C107 C109 1.419 . S
C107 H111 0.930 . S
C108 C107 1.369 . S
C108 C117 1.429 . S
C109 C107 1.419 . S
C109 C110 1.363 . S
C109 H112 0.929 . S
C110 C109 1.363 . S
C110 C116 1.428 . S
H111 C107 0.930 . S
H112 C109 0.929 . S
S113 N114 1.613 . S
S113 N115 1.610 . S
N114 S113 1.613 . S
N114 C117 1.350 1_655 S
N115 S113 1.610 . S
N115 C116 1.351 1_655 S
C116 C110 1.428 . S
C116 N115 1.351 1_455 S
C116 C117 1.434 . S
C117 C108 1.429 . S
C117 N114 1.350 1_455 S
C117 C116 1.434 . S
C118 C119 1.369 . S
C118 C120 1.419 . S
C118 H122 0.930 . S
C119 C118 1.369 . S
C119 C128 1.429 . S
C120 C118 1.419 . S
C120 C121 1.363 . S
C120 H123 0.929 . S
C121 C120 1.363 . S
C121 C127 1.428 . S
H122 C118 0.930 . S
H123 C120 0.929 . S
S124 N125 1.613 . S
S124 N126 1.610 . S
N125 S124 1.613 . S
N125 C128 1.350 . S
N126 S124 1.610 . S
N126 C127 1.351 . S
C127 C121 1.428 . S
C127 N126 1.351 . S
C127 C128 1.434 . S
C128 C119 1.429 . S
C128 N125 1.350 . S
C128 C127 1.434 . S
C129 C130 1.369 . S
C129 C131 1.419 . S
C129 H133 0.930 . S
C130 C129 1.369 . S
C130 C139 1.429 . S
C131 C129 1.419 . S
C131 C132 1.363 . S
C131 H134 0.929 . S
C132 C131 1.363 . S
C132 C138 1.428 . S
H133 C129 0.930 . S
H134 C131 0.929 . S
S135 N136 1.613 . S
S135 N137 1.610 . S
N136 S135 1.613 . S
N136 C139 1.350 . S
N137 S135 1.610 . S
N137 C138 1.351 . S
C138 C132 1.428 . S
C138 N137 1.351 . S
C138 C139 1.434 . S
C139 C130 1.429 . S
C139 N136 1.350 . S
C139 C138 1.434 . S
C140 C141 1.369 . S
C140 C142 1.419 . S
C140 H144 0.930 . S
C141 C140 1.369 . S
C141 C150 1.429 . S
C142 C140 1.419 . S
C142 C143 1.363 . S
C142 H145 0.929 . S
C143 C142 1.363 . S
C143 C149 1.428 . S
H144 C140 0.930 . S
H145 C142 0.929 . S
S146 N147 1.613 1_565 S
S146 N148 1.610 1_565 S
N147 S146 1.613 1_545 S
N147 C150 1.350 . S
N148 S146 1.610 1_545 S
N148 C149 1.351 . S
C149 C143 1.428 . S
C149 N148 1.351 . S
C149 C150 1.434 . S
C150 C141 1.429 . S
C150 N147 1.350 . S
C150 C149 1.434 . S
C151 C152 1.369 1_655 S
C151 C153 1.419 . S
C151 H155 0.930 . S
C152 C151 1.369 1_455 S
C152 C161 1.429 . S
C153 C151 1.419 . S
C153 C154 1.363 1_655 S
C153 H156 0.929 . S
C154 C153 1.363 1_455 S
C154 C160 1.428 . S
H155 C151 0.930 . S
H156 C153 0.929 . S
S157 N158 1.613 . S
S157 N159 1.610 . S
N158 S157 1.613 . S
N158 C161 1.350 . S
N159 S157 1.610 . S
N159 C160 1.351 . S
C160 C154 1.428 . S
C160 N159 1.351 . S
C160 C161 1.434 . S
C161 C152 1.429 . S
C161 N158 1.350 . S
C161 C160 1.434 . S
C77 C55 1.552 . S
C75 N12 1.510 . S
C88 C66 1.516 . S
C86 N25 1.541 . S
C99 C54 1.571 . S
C97 C16 1.548 . S
C110 C67 1.529 . S
C108 C30 1.607 . S
C121 C69 1.607 . S
C119 C7 1.604 . S
C132 C53 1.489 . S
C130 C39 1.543 . S
C143 C68 1.584 1_655 S
C141 N2 1.549 . S
C152 N35 1.512 . S
C154 C52 1.493 . S
