# Generated by pormake.
# Topology nia, (6,6)-cn, num edge types: 1
# Building blocks:
#     Node 0, Type 0, BuildingBlock: NUHQIS_clean_sbu_0, # of connection points: 6
#     Node 1, Type 0, BuildingBlock: NUHQIS_clean_sbu_0, # of connection points: 6
#     Node 2, Type 1, BuildingBlock: MIDCAF_clean_sbu_0, # of connection points: 6
#     Node 3, Type 1, BuildingBlock: MIDCAF_clean_sbu_0, # of connection points: 6
#     Edge 4, Type (0, 1), None
#     Edge 5, Type (0, 1), None
#     Edge 6, Type (0, 1), None
#     Edge 7, Type (0, 1), None
#     Edge 8, Type (0, 1), None
#     Edge 9, Type (0, 1), None
#     Edge 10, Type (0, 1), None
#     Edge 11, Type (0, 1), None
#     Edge 12, Type (0, 1), None
#     Edge 13, Type (0, 1), None
#     Edge 14, Type (0, 1), None
#     Edge 15, Type (0, 1), None
# Relax obj value: 0.268
# Max RMSD: 0.327
# Mean RMSD: 0.242
data_MOF--net-nia--node1-NUHQIS_clean_sbu_0--node2-MIDCAF_clean_sbu_0--edge1-none
_symmetry_space_group_name_H-M    P1
_symmetry_Int_Tables_number       1
_symmetry_cell_setting            triclinic
loop_
_symmetry_equiv_pos_as_xyz
'x, y, z'
_cell_length_a     15.814887
_cell_length_b     15.816479
_cell_length_c     15.634912
_cell_angle_alpha  90.579727
_cell_angle_beta   90.57281
_cell_angle_gamma 141.97055
loop_
_atom_site_label
_atom_site_type_symbol
_atom_site_fract_x
_atom_site_fract_y
_atom_site_fract_z
_atom_type_partial_charge
Tb0 Tb 0.96665 0.0391 0.98391 0.0
Eu1 Eu 0.00747 0.92025 0.12429 0.0
C2 C 0.21682 0.11277 0.97128 0.0
C3 C 0.84528 0.7652 0.94519 0.0
C4 C 0.88271 0.19035 0.90478 0.0
C5 C 0.90503 0.35741 0.87131 0.0
C6 C 0.95684 0.31563 0.86972 0.0
C7 C 0.75808 0.10962 0.94435 0.0
C8 C 0.70723 0.15219 0.94677 0.0
C9 C 0.77878 0.27472 0.90864 0.0
C10 C 0.93266 0.14217 0.89388 0.0
O11 O 0.78115 0.8835 0.05637 0.0
O12 O 0.85808 0.89177 0.18553 0.0
O13 O 0.15366 0.1375 0.16939 0.0
O14 O 0.02639 0.1425 0.1075 0.0
C15 C 0.76741 0.86218 0.13903 0.0
O16 O 0.90917 0.73716 0.18824 0.0
O17 O 0.1276 0.93167 0.20583 0.0
O18 O 0.15172 0.00601 1.01727 0.0
O19 O 0.17204 0.15484 0.9612 0.0
O20 O 0.90899 0.87876 0.90941 0.0
O21 O 0.84276 0.75713 1.02837 0.0
C22 C 0.12515 0.1953 0.16033 0.0
O23 O 0.04864 0.21454 0.93238 0.0
O24 O 0.84289 0.01037 0.89774 0.0
C25 C 0.05379 0.73222 0.20573 0.0
C26 C 0.15577 0.64703 0.19583 0.0
C27 C 0.07892 0.61192 0.26617 0.0
C28 C 0.02731 0.65368 0.27079 0.0
C29 C 0.12159 0.75832 0.13263 0.0
C30 C 0.17141 0.71511 0.12746 0.0
C31 C 0.02545 0.8 0.21892 0.0
H32 H 0.96329 0.45391 0.84351 0.0
H33 H 0.05321 0.37942 0.83896 0.0
H34 H 0.69903 0.01292 0.97226 0.0
H35 H 0.61081 0.08841 0.97748 0.0
H36 H 0.06347 0.55712 0.31883 0.0
H37 H 0.97404 0.63178 0.32737 0.0
H38 H 0.1418 0.81784 0.08148 0.0
H39 H 0.229 0.7419 0.07208 0.0
Tb40 Tb 0.95181 0.02424 0.6199 0.0
Eu41 Eu 0.07072 -0.0165 0.47957 0.0
C42 C 0.87808 0.77401 0.63255 0.0
C43 C 0.22597 0.14587 0.65859 0.0
C44 C 0.80055 0.10818 0.69906 0.0
C45 C 0.63348 0.08587 0.73252 0.0
C46 C 0.67526 0.03406 0.73412 0.0
C47 C 0.88128 0.2328 0.65948 0.0
C48 C 0.83871 0.28365 0.65705 0.0
C49 C 0.71616 0.21211 0.69518 0.0
C50 C 0.84874 0.05823 0.70996 0.0
O51 O 0.10738 0.20974 0.54745 0.0
O52 O 0.09913 0.13282 0.41831 0.0
O53 O 0.85343 0.83727 0.43444 0.0
O54 O 0.84839 0.9645 0.49633 0.0
C55 C 0.12872 0.22349 0.4648 0.0
O56 O 0.25374 0.0817 0.41555 0.0
O57 O 0.0592 0.86329 0.398 0.0
O58 O -0.01513 0.83915 0.58655 0.0
O59 O 0.83604 0.81883 0.64264 0.0
O60 O 0.1123 0.08203 0.6943 0.0
O61 O 0.23413 0.14832 0.57542 0.0
C62 C 0.7956 0.86574 0.4435 0.0
O63 O 0.77636 0.94226 0.67146 0.0
O64 O -0.01946 0.14799 0.70609 0.0
C65 C 0.25867 0.9371 0.3981 0.0
C66 C 0.34387 0.83513 0.408 0.0
C67 C 0.37899 0.91197 0.33766 0.0
C68 C 0.33722 0.96357 0.33304 0.0
C69 C 0.23256 0.86931 0.4712 0.0
C70 C 0.27578 0.8195 0.47637 0.0
C71 C 0.19087 0.96543 0.38489 0.0
H72 H 0.53696 0.02761 0.76032 0.0
H73 H 0.61147 0.93771 0.76487 0.0
H74 H -0.022 0.29185 0.63158 0.0
H75 H 0.90249 0.38005 0.62634 0.0
H76 H 0.43379 0.92741 0.285 0.0
H77 H 0.35912 0.01683 0.27646 0.0
H78 H 0.17303 0.8491 0.52235 0.0
H79 H 0.24898 0.76192 0.53175 0.0
Zn80 Zn 0.36245 0.59481 0.14952 0.0
Zn81 Zn 0.39607 0.62843 0.45432 0.0
Zn82 Zn 0.39146 0.59942 0.30192 0.0
C83 C 0.65127 0.76411 0.41907 0.0
C84 C 0.20589 0.35511 0.43085 0.0
O85 O 0.28432 0.63602 0.2634 0.0
O86 O 0.24069 0.59422 0.12414 0.0
C87 C 0.63578 0.785 0.17299 0.0
O88 O 0.60827 0.74311 0.34159 0.0
O89 O 0.5718 0.71222 0.48027 0.0
O90 O 0.2342 0.43666 0.48285 0.0
O91 O 0.25856 0.39561 0.35624 0.0
O92 O 0.55422 0.75669 0.12099 0.0
O93 O 0.59529 0.73233 0.2476 0.0
O94 O 0.24778 0.38262 0.26225 0.0
O95 O 0.27868 0.41909 0.12357 0.0
C96 C 0.22678 0.33962 0.18476 0.0
O97 O 0.35487 0.70657 0.34044 0.0
O98 O 0.39667 0.75021 0.4797 0.0
C99 C 0.22636 0.62043 0.19461 0.0
C100 C 0.37046 0.76454 0.40922 0.0
Zn101 Zn 0.63675 0.39058 1.01515 0.0
Zn102 Zn 0.59998 0.35383 0.58844 0.0
Zn103 Zn 0.60167 0.38908 0.80196 0.0
C104 C 0.78446 0.63146 0.65323 0.0
C105 C 0.35464 0.2236 0.70501 0.0
O106 O 0.69158 0.33617 0.84866 0.0
O107 O 0.71033 0.33576 0.99107 0.0
C108 C 0.76741 0.63637 0.89896 0.0
O109 O 0.7321 0.58403 0.72847 0.0
O110 O 0.75186 0.55624 0.59177 0.0
O111 O 0.45112 0.27489 0.65995 0.0
O112 O 0.37888 0.24556 0.78537 0.0
O113 O 0.71623 0.54012 0.94426 0.0
O114 O 0.7452 0.61179 0.81863 0.0
O115 O 0.40675 0.2587 0.87539 0.0
O116 O 0.4345 0.23886 1.01204 0.0
C117 C 0.35932 0.20634 0.95062 0.0
O118 O 0.6546 0.29921 0.75515 0.0
O119 O 0.65507 0.2805 0.61272 0.0
C120 C 0.72651 0.32043 0.91603 0.0
C121 C 0.67042 0.26436 0.68778 0.0
loop_
_geom_bond_atom_site_label_1
_geom_bond_atom_site_label_2
_geom_bond_distance
_geom_bond_site_symmetry_2
_ccdc_geom_bond_type
Tb0 C10 2.825 . S
Tb0 O11 2.347 1_546 S
Tb0 O14 2.366 1_656 S
Tb0 O19 2.418 1_655 S
Tb0 O20 2.384 1_545 S
Tb0 O23 2.479 . S
Tb0 O24 2.471 . S
Eu1 O12 2.418 1_455 S
Eu1 O13 2.384 1_565 S
Eu1 O16 2.479 . S
Eu1 O17 2.471 . S
Eu1 O18 2.347 1_564 S
Eu1 O21 2.366 1_454 S
Eu1 C31 2.825 . S
C2 O18 1.259 . S
C2 O19 1.265 . S
C3 O20 1.255 . S
C3 O21 1.265 . S
C4 C6 1.380 . S
C4 C7 1.374 . S
C4 C10 1.507 . S
C5 C6 1.384 . S
C5 C9 1.387 . S
C5 H32 0.930 . S
C6 C4 1.380 . S
C6 C5 1.384 . S
C6 H33 0.931 . S
C7 C4 1.374 . S
C7 C8 1.390 . S
C7 H34 0.930 . S
C8 C7 1.390 . S
C8 C9 1.391 . S
C8 H35 0.930 . S
C9 C5 1.387 . S
C9 C8 1.391 . S
C10 Tb0 2.825 . S
C10 C4 1.507 . S
C10 O23 1.238 . S
C10 O24 1.247 . S
O11 Tb0 2.347 1_564 S
O11 C15 1.259 . S
O12 Eu1 2.418 1_655 S
O12 C15 1.265 . S
O13 Eu1 2.384 1_545 S
O13 C22 1.255 . S
O14 Tb0 2.366 1_454 S
O14 C22 1.265 . S
C15 O11 1.259 . S
C15 O12 1.265 . S
O16 Eu1 2.479 . S
O16 C31 1.238 . S
O17 Eu1 2.471 . S
O17 C31 1.247 . S
O18 Eu1 2.347 1_546 S
O18 C2 1.259 . S
O19 Tb0 2.418 1_455 S
O19 C2 1.265 . S
O20 Tb0 2.384 1_565 S
O20 C3 1.255 . S
O21 Eu1 2.366 1_656 S
O21 C3 1.265 . S
C22 O13 1.255 . S
C22 O14 1.265 . S
O23 Tb0 2.479 . S
O23 C10 1.238 . S
O24 Tb0 2.471 . S
O24 C10 1.247 . S
C25 C28 1.380 . S
C25 C29 1.374 . S
C25 C31 1.507 . S
C26 C27 1.387 . S
C26 C30 1.391 . S
C27 C26 1.387 . S
C27 C28 1.384 . S
C27 H36 0.930 . S
C28 C25 1.380 . S
C28 C27 1.384 . S
C28 H37 0.931 . S
C29 C25 1.374 . S
C29 C30 1.390 . S
C29 H38 0.930 . S
C30 C26 1.391 . S
C30 C29 1.390 . S
C30 H39 0.930 . S
C31 Eu1 2.825 . S
C31 O16 1.238 . S
C31 O17 1.247 . S
C31 C25 1.507 . S
H32 C5 0.930 . S
H33 C6 0.931 . S
H34 C7 0.930 . S
H35 C8 0.930 . S
H36 C27 0.930 . S
H37 C28 0.931 . S
H38 C29 0.930 . S
H39 C30 0.930 . S
Tb40 C50 2.825 1_455 S
Tb40 O51 2.347 . S
Tb40 O54 2.366 1_445 S
Tb40 O59 2.418 1_445 S
Tb40 O60 2.384 . S
Tb40 O63 2.479 1_455 S
Tb40 O64 2.471 1_455 S
Eu41 O52 2.418 1_565 S
Eu41 O53 2.384 1_455 S
Eu41 O56 2.479 1_565 S
Eu41 O57 2.471 . S
Eu41 O58 2.347 1_455 S
Eu41 O61 2.366 1_565 S
Eu41 C71 2.825 . S
C42 O58 1.259 . S
C42 O59 1.265 . S
C43 O60 1.255 . S
C43 O61 1.265 . S
C44 C46 1.380 . S
C44 C47 1.374 . S
C44 C50 1.507 . S
C45 C46 1.384 . S
C45 C49 1.387 . S
C45 H72 0.930 . S
C46 C44 1.380 . S
C46 C45 1.384 . S
C46 H73 0.931 . S
C47 C44 1.374 . S
C47 C48 1.390 . S
C47 H74 0.930 . S
C48 C47 1.390 . S
C48 C49 1.391 . S
C48 H75 0.930 . S
C49 C45 1.387 . S
C49 C48 1.391 . S
C50 Tb40 2.825 1_655 S
C50 C44 1.507 . S
C50 O63 1.238 . S
C50 O64 1.247 . S
O51 Tb40 2.347 . S
O51 C55 1.259 . S
O52 Eu41 2.418 1_545 S
O52 C55 1.265 . S
O53 Eu41 2.384 1_655 S
O53 C62 1.255 . S
O54 Tb40 2.366 1_665 S
O54 C62 1.265 . S
C55 O51 1.259 . S
C55 O52 1.265 . S
O56 Eu41 2.479 1_545 S
O56 C71 1.238 1_545 S
O57 Eu41 2.471 . S
O57 C71 1.247 . S
O58 Eu41 2.347 1_655 S
O58 C42 1.259 . S
O59 Tb40 2.418 1_665 S
O59 C42 1.265 . S
O60 Tb40 2.384 . S
O60 C43 1.255 . S
O61 Eu41 2.366 1_545 S
O61 C43 1.265 . S
C62 O53 1.255 . S
C62 O54 1.265 . S
O63 Tb40 2.479 1_655 S
O63 C50 1.238 . S
O64 Tb40 2.471 1_655 S
O64 C50 1.247 . S
C65 C68 1.380 . S
C65 C69 1.374 . S
C65 C71 1.507 . S
C66 C67 1.387 . S
C66 C70 1.391 . S
C67 C66 1.387 . S
C67 C68 1.384 . S
C67 H76 0.930 . S
C68 C65 1.380 . S
C68 C67 1.384 . S
C68 H77 0.931 1_565 S
C69 C65 1.374 . S
C69 C70 1.390 . S
C69 H78 0.930 . S
C70 C66 1.391 . S
C70 C69 1.390 . S
C70 H79 0.930 . S
C71 Eu41 2.825 . S
C71 O56 1.238 1_565 S
C71 O57 1.247 . S
C71 C65 1.507 . S
H72 C45 0.930 . S
H73 C46 0.931 . S
H74 C47 0.930 . S
H75 C48 0.930 . S
H76 C67 0.930 . S
H77 C68 0.931 1_545 S
H78 C69 0.930 . S
H79 C70 0.930 . S
Zn80 O86 1.920 . S
Zn80 O92 1.898 . S
Zn80 O95 1.905 . S
Zn81 O89 1.905 . S
Zn81 O90 1.898 . S
Zn81 O98 1.920 . S
Zn82 O85 2.080 . S
Zn82 O88 2.114 . S
Zn82 O91 2.120 . S
Zn82 O93 2.120 . S
Zn82 O94 2.114 . S
Zn82 O97 2.080 . S
C83 O88 1.166 . S
C83 O89 1.182 . S
C84 O90 1.167 . S
C84 O91 1.299 . S
O85 Zn82 2.080 . S
O85 C99 1.305 . S
O86 Zn80 1.920 . S
O86 C99 1.234 . S
C87 O92 1.167 . S
C87 O93 1.299 . S
O88 Zn82 2.114 . S
O88 C83 1.166 . S
O89 Zn81 1.905 . S
O89 C83 1.182 . S
O90 Zn81 1.898 . S
O90 C84 1.167 . S
O91 Zn82 2.120 . S
O91 C84 1.299 . S
O92 Zn80 1.898 . S
O92 C87 1.167 . S
O93 Zn82 2.120 . S
O93 C87 1.299 . S
O94 Zn82 2.114 . S
O94 C96 1.166 . S
O95 Zn80 1.905 . S
O95 C96 1.182 . S
C96 O94 1.166 . S
C96 O95 1.182 . S
O97 Zn82 2.080 . S
O97 C100 1.305 . S
O98 Zn81 1.920 . S
O98 C100 1.234 . S
C99 O85 1.305 . S
C99 O86 1.234 . S
C100 O97 1.305 . S
C100 O98 1.234 . S
Zn101 O107 1.920 . S
Zn101 O113 1.898 . S
Zn101 O116 1.905 . S
Zn102 O110 1.905 . S
Zn102 O111 1.898 . S
Zn102 O119 1.920 . S
Zn103 O106 2.080 . S
Zn103 O109 2.114 . S
Zn103 O112 2.120 . S
Zn103 O114 2.120 . S
Zn103 O115 2.114 . S
Zn103 O118 2.080 . S
C104 O109 1.166 . S
C104 O110 1.182 . S
C105 O111 1.167 . S
C105 O112 1.299 . S
O106 Zn103 2.080 . S
O106 C120 1.305 . S
O107 Zn101 1.920 . S
O107 C120 1.234 . S
C108 O113 1.167 . S
C108 O114 1.299 . S
O109 Zn103 2.114 . S
O109 C104 1.166 . S
O110 Zn102 1.905 . S
O110 C104 1.182 . S
O111 Zn102 1.898 . S
O111 C105 1.167 . S
O112 Zn103 2.120 . S
O112 C105 1.299 . S
O113 Zn101 1.898 . S
O113 C108 1.167 . S
O114 Zn103 2.120 . S
O114 C108 1.299 . S
O115 Zn103 2.114 . S
O115 C117 1.166 . S
O116 Zn101 1.905 . S
O116 C117 1.182 . S
C117 O115 1.166 . S
C117 O116 1.182 . S
O118 Zn103 2.080 . S
O118 C121 1.305 . S
O119 Zn102 1.920 . S
O119 C121 1.234 . S
C120 O106 1.305 . S
C120 O107 1.234 . S
C121 O118 1.305 . S
C121 O119 1.234 . S
C26 C99 1.311 . S
C43 C105 1.285 . S
C22 C96 1.535 . S
C49 C121 2.068 . S
C15 C87 2.165 . S
C104 C42 2.073 . S
C66 C100 1.311 . S
C117 C2 2.073 . S
C84 C55 2.165 . S
C120 C9 2.068 . S
C83 C62 1.536 . S
C108 C3 1.285 . S
