# Generated by pormake.
# Topology bcu-b, (8,8)-cn, num edge types: 1
# Building blocks:
#     Node 0, Type 0, BuildingBlock: VETTIZ_charged_sbu_0, # of connection points: 8
#     Node 1, Type 1, BuildingBlock: TAGTUT_clean_sbu_1, # of connection points: 8
#     Edge 2, Type (0, 1), None
#     Edge 3, Type (0, 1), None
#     Edge 4, Type (0, 1), None
#     Edge 5, Type (0, 1), None
#     Edge 6, Type (0, 1), None
#     Edge 7, Type (0, 1), None
#     Edge 8, Type (0, 1), None
#     Edge 9, Type (0, 1), None
# Relax obj value: 0.024
# Max RMSD: 0.103
# Mean RMSD: 0.088
data_MOF--net-bcu-b--node1-VETTIZ_charged_sbu_0--node2-TAGTUT_clean_sbu_1--edge1-none
_symmetry_space_group_name_H-M    P1
_symmetry_Int_Tables_number       1
_symmetry_cell_setting            triclinic
loop_
_symmetry_equiv_pos_as_xyz
'x, y, z'
_cell_length_a     10.044057
_cell_length_b     10.73861
_cell_length_c     10.799982
_cell_angle_alpha  91.498476
_cell_angle_beta   91.418917
_cell_angle_gamma 101.96432
loop_
_atom_site_label
_atom_site_type_symbol
_atom_site_fract_x
_atom_site_fract_y
_atom_site_fract_z
_atom_type_partial_charge
Fe0 Fe 0.90748 0.67001 0.96504 0.0
O1 O 0.91868 0.85474 0.98718 0.0
Fe2 Fe 1.00768 -0.02463 0.84774 0.0
Fe3 Fe 0.01596 0.95228 0.13439 0.0
O4 O 0.91919 0.85485 0.97433 0.0
O5 O 0.10502 0.0729 -0.00506 0.0
O6 O 0.10449 0.07281 0.0078 0.0
Fe7 Fe 0.1161 0.25764 0.01706 0.0
C8 C 0.79759 0.71634 0.21439 0.0
O9 O 0.05654 0.66232 0.10383 0.0
O10 O 0.17576 0.85933 0.12331 0.0
O11 O 0.25209 0.26262 0.87733 0.0
O12 O 0.12147 0.11905 0.73828 0.0
O13 O 0.15917 0.87596 0.821 0.0
O14 O 0.04247 0.6762 0.82513 0.0
O15 O 0.13309 0.06982 0.27075 0.0
O16 O 0.24552 0.2421 0.16121 0.0
C17 C 0.13076 0.7617 0.77736 0.0
O18 O 0.9671 0.26528 0.8782 0.0
O19 O 0.84788 0.06829 0.85888 0.0
O20 O 0.77157 0.66506 0.10482 0.0
O21 O 0.90221 0.80862 0.24387 0.0
C22 C 0.1619 0.74242 0.14574 0.0
C23 C 0.22365 0.17439 0.25948 0.0
C24 C 0.89274 0.16587 0.20464 0.0
O25 O 0.8644 0.05161 0.16102 0.0
O26 O 0.98102 0.25139 0.15689 0.0
C27 C 0.22611 0.21132 0.76776 0.0
O28 O 0.89047 0.85789 0.71139 0.0
O29 O 0.77799 0.68569 0.82101 0.0
C30 C 0.86173 0.18517 0.83634 0.0
C31 C 0.79981 0.7534 0.72274 0.0
C32 C 0.19367 0.72553 0.66388 0.0
C33 C 0.24404 0.70446 0.25031 0.0
C34 C 0.3129 0.22342 0.36305 0.0
Mg35 Mg 0.43247 0.75065 0.49129 0.0
O36 O 0.38565 0.57611 0.52988 0.0
Mg37 Mg 0.20906 0.47424 0.46288 0.0
Mg38 Mg 0.51191 0.46386 0.49107 0.0
O39 O 0.638 0.35148 0.45223 0.0
Mg40 Mg 0.59104 0.17689 0.49078 0.0
Mg41 Mg 0.81461 0.45322 0.51915 0.0
C42 C 0.71064 0.70424 0.61917 0.0
C43 C 0.74068 0.63352 0.31316 0.0
O44 O 0.13866 0.61935 0.60544 0.0
O45 O 0.3042 0.7974 0.63121 0.0
O46 O 0.19573 0.59812 0.29728 0.0
O47 O 0.34325 0.78298 0.30517 0.0
O48 O 0.64321 0.78044 0.56813 0.0
O49 O 0.67547 0.5823 0.61172 0.0
C50 C 0.28304 0.29412 0.66898 0.0
O51 O 0.41165 0.33042 0.65183 0.0
O52 O 0.19607 0.34114 0.61083 0.0
O53 O 0.8849 0.30813 0.3766 0.0
O54 O 0.71927 0.13015 0.35078 0.0
O55 O 0.82792 0.32936 0.68472 0.0
C56 C 0.82984 0.202 0.31814 0.0
O57 O 0.68035 0.14453 0.6769 0.0
O58 O 0.38016 0.14704 0.41405 0.0
C59 C 0.7796 0.22305 0.73172 0.0
O60 O 0.34855 0.34531 0.37053 0.0
O61 O 0.61209 0.59728 0.33034 0.0
O62 O 0.82764 0.58639 0.37123 0.0
loop_
_geom_bond_atom_site_label_1
_geom_bond_atom_site_label_2
_geom_bond_distance
_geom_bond_site_symmetry_2
_ccdc_geom_bond_type
Fe0 O1 1.886 . S
Fe0 O4 1.715 1_554 S
Fe0 O9 2.077 1_655 S
Fe0 O14 1.935 1_654 S
Fe0 O20 2.077 . S
Fe0 O29 1.935 1_554 S
O1 Fe0 1.886 . S
O1 Fe3 1.715 1_665 S
Fe2 O4 1.886 . S
Fe2 O5 1.715 1_665 S
Fe2 O12 1.935 1_665 S
Fe2 O13 2.077 1_655 S
Fe2 O19 1.935 1_565 S
Fe2 O28 2.077 . S
Fe3 O1 1.715 1_445 S
Fe3 O6 1.886 . S
Fe3 O10 1.935 1_545 S
Fe3 O15 2.077 . S
Fe3 O21 1.935 1_445 S
Fe3 O25 2.077 1_455 S
O4 Fe0 1.715 1_556 S
O4 Fe2 1.886 . S
O5 Fe2 1.715 1_445 S
O5 Fe7 1.886 . S
O6 Fe3 1.886 . S
O6 Fe7 1.715 1_554 S
Fe7 O5 1.886 . S
Fe7 O6 1.715 1_556 S
Fe7 O11 2.077 . S
Fe7 O16 1.935 1_556 S
Fe7 O18 2.077 1_455 S
Fe7 O26 1.935 1_456 S
C8 O20 1.381 . S
C8 O21 1.421 . S
O9 Fe0 2.077 1_455 S
O9 C22 1.381 . S
O10 Fe3 1.935 1_565 S
O10 C22 1.421 . S
O11 Fe7 2.077 . S
O11 C27 1.381 . S
O12 Fe2 1.935 1_445 S
O12 C27 1.421 . S
O13 Fe2 2.077 1_455 S
O13 C17 1.381 . S
O14 Fe0 1.935 1_456 S
O14 C17 1.421 . S
O15 Fe3 2.077 . S
O15 C23 1.381 . S
O16 Fe7 1.935 1_554 S
O16 C23 1.421 . S
C17 O13 1.381 . S
C17 O14 1.421 . S
O18 Fe7 2.077 1_655 S
O18 C30 1.381 . S
O19 Fe2 1.935 1_545 S
O19 C30 1.421 . S
O20 Fe0 2.077 . S
O20 C8 1.381 . S
O21 Fe3 1.935 1_665 S
O21 C8 1.421 . S
C22 O9 1.381 . S
C22 O10 1.421 . S
C23 O15 1.381 . S
C23 O16 1.421 . S
C24 O25 1.381 . S
C24 O26 1.421 . S
O25 Fe3 2.077 1_655 S
O25 C24 1.381 . S
O26 Fe7 1.935 1_654 S
O26 C24 1.421 . S
C27 O11 1.381 . S
C27 O12 1.421 . S
O28 Fe2 2.077 . S
O28 C31 1.381 . S
O29 Fe0 1.935 1_556 S
O29 C31 1.421 . S
C30 O18 1.381 . S
C30 O19 1.421 . S
C31 O28 1.381 . S
C31 O29 1.421 . S
C32 O44 1.241 . S
C32 O45 1.280 . S
C33 O46 1.277 . S
C33 O47 1.245 . S
C34 O58 1.247 . S
C34 O60 1.289 . S
Mg35 O36 1.926 . S
Mg35 O45 1.984 . S
Mg35 O47 1.988 . S
Mg35 O48 2.061 . S
O36 Mg35 1.926 . S
O36 Mg37 1.986 . S
O36 Mg38 1.917 . S
Mg37 O36 1.986 . S
Mg37 O44 2.042 . S
Mg37 O46 2.041 . S
Mg37 O52 2.038 . S
Mg37 O60 2.238 . S
Mg38 O36 1.917 . S
Mg38 O39 1.917 . S
Mg38 O49 2.106 . S
Mg38 O51 2.079 . S
Mg38 O60 2.106 . S
Mg38 O61 2.079 . S
O39 Mg38 1.917 . S
O39 Mg40 1.926 . S
O39 Mg41 1.986 . S
Mg40 O39 1.926 . S
Mg40 O54 1.984 . S
Mg40 O57 1.988 . S
Mg40 O58 2.061 . S
Mg41 O39 1.986 . S
Mg41 O49 2.238 . S
Mg41 O53 2.042 . S
Mg41 O55 2.041 . S
Mg41 O62 2.038 . S
C42 O48 1.247 . S
C42 O49 1.289 . S
C43 O61 1.245 . S
C43 O62 1.274 . S
O44 C32 1.241 . S
O44 Mg37 2.042 . S
O45 C32 1.280 . S
O45 Mg35 1.984 . S
O46 C33 1.277 . S
O46 Mg37 2.041 . S
O47 C33 1.245 . S
O47 Mg35 1.988 . S
O48 Mg35 2.061 . S
O48 C42 1.247 . S
O49 Mg38 2.106 . S
O49 Mg41 2.238 . S
O49 C42 1.289 . S
C50 O51 1.245 . S
C50 O52 1.274 . S
O51 Mg38 2.079 . S
O51 C50 1.245 . S
O52 Mg37 2.038 . S
O52 C50 1.274 . S
O53 Mg41 2.042 . S
O53 C56 1.241 . S
O54 Mg40 1.984 . S
O54 C56 1.280 . S
O55 Mg41 2.041 . S
O55 C59 1.277 . S
C56 O53 1.241 . S
C56 O54 1.280 . S
O57 Mg40 1.988 . S
O57 C59 1.245 . S
O58 C34 1.247 . S
O58 Mg40 2.061 . S
C59 O55 1.277 . S
C59 O57 1.245 . S
O60 C34 1.289 . S
O60 Mg37 2.238 . S
O60 Mg38 2.106 . S
O61 Mg38 2.079 . S
O61 C43 1.245 . S
O62 Mg41 2.038 . S
O62 C43 1.274 . S
C23 C34 1.276 . S
C24 C56 1.319 . S
C8 C43 1.494 . S
C22 C33 1.531 . S
C17 C32 1.322 . S
C50 C27 1.495 . S
C30 C59 1.531 . S
C42 C31 1.278 . S
