# Generated by pormake.
# Topology hwx, (6,3)-cn, num edge types: 1
# Building blocks:
#     Node 0, Type 0, BuildingBlock: IZENUY_clean_sbu_0, # of connection points: 6
#     Node 1, Type 0, BuildingBlock: IZENUY_clean_sbu_0, # of connection points: 6
#     Node 2, Type 0, BuildingBlock: IZENUY_clean_sbu_0, # of connection points: 6
#     Node 3, Type 0, BuildingBlock: IZENUY_clean_sbu_0, # of connection points: 6
#     Node 4, Type 1, BuildingBlock: OLANEW_clean_sbu_2, # of connection points: 3
#     Node 5, Type 1, BuildingBlock: OLANEW_clean_sbu_2, # of connection points: 3
#     Node 6, Type 1, BuildingBlock: OLANEW_clean_sbu_2, # of connection points: 3
#     Node 7, Type 1, BuildingBlock: OLANEW_clean_sbu_2, # of connection points: 3
#     Node 8, Type 1, BuildingBlock: OLANEW_clean_sbu_2, # of connection points: 3
#     Node 9, Type 1, BuildingBlock: OLANEW_clean_sbu_2, # of connection points: 3
#     Node 10, Type 1, BuildingBlock: OLANEW_clean_sbu_2, # of connection points: 3
#     Node 11, Type 1, BuildingBlock: OLANEW_clean_sbu_2, # of connection points: 3
#     Edge 12, Type (0, 1), None
#     Edge 13, Type (0, 1), None
#     Edge 14, Type (0, 1), None
#     Edge 15, Type (0, 1), None
#     Edge 16, Type (0, 1), None
#     Edge 17, Type (0, 1), None
#     Edge 18, Type (0, 1), None
#     Edge 19, Type (0, 1), None
#     Edge 20, Type (0, 1), None
#     Edge 21, Type (0, 1), None
#     Edge 22, Type (0, 1), None
#     Edge 23, Type (0, 1), None
#     Edge 24, Type (0, 1), None
#     Edge 25, Type (0, 1), None
#     Edge 26, Type (0, 1), None
#     Edge 27, Type (0, 1), None
#     Edge 28, Type (0, 1), None
#     Edge 29, Type (0, 1), None
#     Edge 30, Type (0, 1), None
#     Edge 31, Type (0, 1), None
#     Edge 32, Type (0, 1), None
#     Edge 33, Type (0, 1), None
#     Edge 34, Type (0, 1), None
#     Edge 35, Type (0, 1), None
# Relax obj value: 0.017
# Max RMSD: 0.067
# Mean RMSD: 0.056
data_MOF--net-hwx--node1-IZENUY_clean_sbu_0--node2-OLANEW_clean_sbu_2--edge1-none
_symmetry_space_group_name_H-M    P1
_symmetry_Int_Tables_number       1
_symmetry_cell_setting            triclinic
loop_
_symmetry_equiv_pos_as_xyz
'x, y, z'
_cell_length_a     26.491688
_cell_length_b     26.255957
_cell_length_c     10.687899
_cell_angle_alpha  81.595833
_cell_angle_beta   98.825264
_cell_angle_gamma 90.568543
loop_
_atom_site_label
_atom_site_type_symbol
_atom_site_fract_x
_atom_site_fract_y
_atom_site_fract_z
_atom_type_partial_charge
Fe0 Fe 0.25978 0.25751 0.21313 0.0
Fe1 Fe 0.25595 0.28456 0.92502 0.0
O2 O 0.2304 0.25126 0.05646 0.0
Fe3 Fe 0.17564 0.21258 0.03043 0.0
O4 O 0.14872 0.22813 0.17102 0.0
O5 O 0.20276 0.28473 0.24623 0.0
O6 O 0.28011 0.32561 0.16949 0.0
C7 C 0.26124 0.35917 0.0755 0.0
C8 C 0.23022 0.15111 0.23273 0.0
O9 O 0.24243 0.34581 0.97022 0.0
C10 C 0.23715 0.19252 0.84595 0.0
O11 O 0.31894 0.23078 0.18806 0.0
O12 O 0.32326 0.28239 0.00901 0.0
O13 O 0.20848 0.15561 0.11879 0.0
O14 O 0.24386 0.19098 0.28428 0.0
C15 C 0.14818 0.28979 0.83614 0.0
O16 O 0.27015 0.2252 0.87479 0.0
O17 O 0.19405 0.19126 0.8852 0.0
C18 C 0.34429 0.25067 0.10387 0.0
O19 O 0.19407 0.29185 0.81446 0.0
O20 O 0.13784 0.26617 0.93951 0.0
C21 C 0.15902 0.26569 0.23306 0.0
Fe22 Fe 0.26404 0.74354 0.64591 0.0
Fe23 Fe 0.35412 0.70249 0.53492 0.0
O24 O 0.29279 0.7326 0.5134 0.0
Fe25 Fe 0.26005 0.75289 0.35678 0.0
O26 O 0.22552 0.80703 0.39672 0.0
O27 O 0.26057 0.81311 0.59265 0.0
O28 O 0.32515 0.75542 0.74716 0.0
C29 C 0.37024 0.76408 0.72257 0.0
C30 C 0.18089 0.71223 0.46803 0.0
O31 O 0.38447 0.75041 0.62555 0.0
C32 C 0.30767 0.65974 0.3309 0.0
O33 O 0.26616 0.67507 0.70949 0.0
O34 O 0.34515 0.65941 0.68263 0.0
O35 O 0.20819 0.70965 0.38249 0.0
O36 O 0.19749 0.73339 0.56638 0.0
C37 C 0.35617 0.78484 0.33192 0.0
O38 O 0.32955 0.6514 0.44528 0.0
O39 O 0.28795 0.70325 0.28383 0.0
C40 C 0.30575 0.64663 0.73361 0.0
O41 O 0.37352 0.74165 0.3921 0.0
O42 O 0.30997 0.79731 0.3242 0.0
C43 C 0.23819 0.83387 0.48479 0.0
Fe44 Fe 0.76074 0.79255 0.88109 0.0
Fe45 Fe 0.78041 0.77853 0.17465 0.0
O46 O 0.79644 0.80706 0.02505 0.0
Fe47 Fe 0.84893 0.84982 0.01897 0.0
O48 O 0.80853 0.90275 0.93001 0.0
O49 O 0.7689 0.8564 0.78991 0.0
O50 O 0.70262 0.81766 0.91815 0.0
C51 C 0.68316 0.80144 0.01639 0.0
C52 C 0.85532 0.79319 0.81643 0.0
O53 O 0.71029 0.77843 0.1172 0.0
C54 C 0.88947 0.77343 0.20959 0.0
O55 O 0.74564 0.72622 0.94591 0.0
O56 O 0.78789 0.71359 0.14151 0.0
O57 O 0.86528 0.83259 0.87034 0.0
O58 O 0.8167 0.76648 0.83411 0.0
C59 C 0.80391 0.87567 0.22616 0.0
O60 O 0.84801 0.77325 0.25652 0.0
O61 O 0.89316 0.79949 0.10296 0.0
C62 C 0.76435 0.6962 0.04566 0.0
O63 O 0.77099 0.84091 0.2203 0.0
O64 O 0.84201 0.87553 0.16752 0.0
C65 C 0.78181 0.8998 0.82267 0.0
Fe66 Fe 0.69141 0.33573 0.47752 0.0
Fe67 Fe 0.7654 0.24905 0.61662 0.0
O68 O 0.73621 0.28676 0.47289 0.0
Fe69 Fe 0.75184 0.27447 0.32431 0.0
O70 O 0.74207 0.34201 0.24336 0.0
O71 O 0.72804 0.38457 0.39677 0.0
O72 O 0.72467 0.35414 0.62785 0.0
C73 C 0.76893 0.3439 0.69063 0.0
C74 C 0.64681 0.28525 0.27279 0.0
O75 O 0.79398 0.30483 0.67843 0.0
C76 C 0.74669 0.17473 0.46461 0.0
O77 O 0.65107 0.29119 0.56011 0.0
O78 O 0.71177 0.25296 0.70398 0.0
O79 O 0.68569 0.25781 0.27132 0.0
O80 O 0.65041 0.32496 0.32814 0.0
C81 C 0.84538 0.27 0.47542 0.0
O82 O 0.73767 0.19102 0.56407 0.0
O83 O 0.76436 0.20455 0.37738 0.0
C84 C 0.66557 0.26625 0.66895 0.0
O85 O 0.82549 0.23967 0.55694 0.0
O86 O 0.81839 0.29074 0.37302 0.0
C87 C 0.7411 0.38397 0.28907 0.0
O88 O 0.26976 0.58583 0.88422 0.0
Cd89 Cd 0.26501 0.52259 0.08317 0.0
O90 O 0.3534 0.59192 0.90803 0.0
Cd91 Cd 0.3574 0.55214 0.10412 0.0
O92 O 0.34444 0.58536 0.27314 0.0
C93 C 0.31312 0.62308 0.2425 0.0
O94 O 0.29118 0.63402 0.12283 0.0
C95 C 0.30982 0.60438 0.84318 0.0
C96 C 0.26347 0.41487 0.08238 0.0
O97 O 0.30285 0.43564 0.13871 0.0
O98 O 0.22647 0.44451 0.02401 0.0
O99 O 0.95695 0.71072 0.23693 0.0
Cd100 Cd 0.02631 0.66045 0.38997 0.0
O101 O 0.95469 0.75528 0.39171 0.0
Cd102 Cd 0.92753 0.81508 0.48019 0.0
O103 O 0.90232 0.82576 0.65444 0.0
C104 C 0.88055 0.78719 0.70814 0.0
O105 O 0.87432 0.74524 0.65421 0.0
C106 C 0.93526 0.74515 0.28267 0.0
C107 C 0.1273 0.69554 0.4429 0.0
O108 O 0.11207 0.67293 0.34555 0.0
O109 O 0.09443 0.70406 0.51406 0.0
O110 O 0.7146 0.47079 0.22419 0.0
Cd111 Cd 0.69135 0.55125 0.07606 0.0
O112 O 0.76804 0.44072 0.11485 0.0
Cd113 Cd 0.81677 0.38388 0.0638 0.0
O114 O 0.81718 0.34893 0.8934 0.0
C115 C 0.78554 0.37064 0.7999 0.0
O116 O 0.75999 0.41151 0.81406 0.0
C117 C 0.74249 0.43409 0.20687 0.0
C118 C 0.74616 0.64301 0.06219 0.0
O119 O 0.72787 0.62491 0.16365 0.0
O120 O 0.74147 0.61643 0.96976 0.0
O121 O 0.05931 0.30087 0.75216 0.0
Cd122 Cd 0.98933 0.33834 0.58269 0.0
O123 O 0.114 0.31448 0.6172 0.0
Cd124 Cd 0.05295 0.30635 0.45762 0.0
O125 O 0.07916 0.26701 0.31269 0.0
C126 C 0.12268 0.2863 0.30321 0.0
O127 O 0.13711 0.32502 0.36503 0.0
C128 C 0.10537 0.30425 0.73136 0.0
C129 C 0.89733 0.28837 0.5128 0.0
O130 O 0.91081 0.29893 0.62634 0.0
O131 O 0.92823 0.29897 0.43182 0.0
O132 O 0.73943 0.95125 0.63679 0.0
Cd133 Cd 0.72539 0.01461 0.438 0.0
O134 O 0.82144 0.96344 0.69264 0.0
Cd135 Cd 0.82669 0.98958 0.49104 0.0
O136 O 0.83291 0.94809 0.32938 0.0
C137 C 0.80079 0.91218 0.31695 0.0
O138 O 0.76607 0.90556 0.39318 0.0
C139 C 0.77975 0.94348 0.71891 0.0
C140 C 0.74021 0.1196 0.45601 0.0
O141 O 0.7716 0.09467 0.40693 0.0
O142 O 0.70303 0.09508 0.49931 0.0
O143 O 0.57243 0.23424 0.28662 0.0
Cd144 Cd 0.49962 0.20013 0.14881 0.0
O145 O 0.57477 0.28366 0.10686 0.0
Cd146 Cd 0.60322 0.33277 0.95628 0.0
O147 O 0.62101 0.31782 0.7753 0.0
C148 C 0.63619 0.27256 0.76984 0.0
O149 O 0.6401 0.23781 0.87266 0.0
C150 C 0.59569 0.26809 0.22054 0.0
C151 C 0.39895 0.23685 0.12087 0.0
O152 O 0.41787 0.20277 0.2144 0.0
O153 O 0.42825 0.25631 0.04192 0.0
O154 O 0.203 0.06354 0.26682 0.0
Cd155 Cd 0.18311 0.98976 0.42783 0.0
O156 O 0.25381 0.08983 0.42322 0.0
Cd157 Cd 0.29686 0.14364 0.52515 0.0
O158 O 0.28603 0.17475 0.69262 0.0
C159 C 0.24643 0.164 0.74469 0.0
O160 O 0.21201 0.13285 0.69706 0.0
C161 C 0.23046 0.0991 0.30976 0.0
C162 C 0.22133 0.88826 0.46375 0.0
O163 O 0.18712 0.90519 0.36866 0.0
O164 O 0.24009 0.91988 0.53879 0.0
O165 O 0.45599 0.77764 0.82316 0.0
Cd166 Cd 0.52028 0.81605 0.98082 0.0
O167 O 0.39256 0.81427 0.8895 0.0
Cd168 Cd 0.4439 0.83955 0.04692 0.0
O169 O 0.42945 0.80161 0.23059 0.0
C170 C 0.38557 0.81608 0.24519 0.0
O171 O 0.36257 0.8543 0.16391 0.0
C172 C 0.40811 0.78674 0.81466 0.0
C173 C 0.62712 0.80553 0.00621 0.0
O174 O 0.60153 0.83611 0.91433 0.0
O175 O 0.60237 0.77752 0.08413 0.0
loop_
_geom_bond_atom_site_label_1
_geom_bond_atom_site_label_2
_geom_bond_distance
_geom_bond_site_symmetry_2
_ccdc_geom_bond_type
Fe0 O2 1.918 . S
Fe0 O5 1.997 . S
Fe0 O6 2.002 . S
Fe0 O11 1.976 . S
Fe0 O14 1.996 . S
Fe1 O2 1.918 1_556 S
Fe1 O9 1.997 . S
Fe1 O12 1.996 . S
Fe1 O16 1.976 . S
Fe1 O19 2.002 . S
O2 Fe0 1.918 . S
O2 Fe1 1.918 1_554 S
O2 Fe3 1.918 . S
Fe3 O2 1.918 . S
Fe3 O4 2.002 . S
Fe3 O13 1.976 . S
Fe3 O17 1.996 1_554 S
Fe3 O20 1.997 1_554 S
O4 Fe3 2.002 . S
O4 C21 1.295 . S
O5 Fe0 1.997 . S
O5 C21 1.235 . S
O6 Fe0 2.002 . S
O6 C7 1.295 . S
C7 O6 1.295 . S
C7 O9 1.235 1_554 S
C8 O13 1.287 . S
C8 O14 1.255 . S
O9 Fe1 1.997 . S
O9 C7 1.235 1_556 S
C10 O16 1.287 . S
C10 O17 1.255 . S
O11 Fe0 1.976 . S
O11 C18 1.287 . S
O12 Fe1 1.996 . S
O12 C18 1.255 1_556 S
O13 Fe3 1.976 . S
O13 C8 1.287 . S
O14 Fe0 1.996 . S
O14 C8 1.255 . S
C15 O19 1.295 . S
C15 O20 1.235 . S
O16 Fe1 1.976 . S
O16 C10 1.287 . S
O17 Fe3 1.996 1_556 S
O17 C10 1.255 . S
C18 O11 1.287 . S
C18 O12 1.255 1_554 S
O19 Fe1 2.002 . S
O19 C15 1.295 . S
O20 Fe3 1.997 1_556 S
O20 C15 1.235 . S
C21 O4 1.295 . S
C21 O5 1.235 . S
Fe22 O24 1.918 . S
Fe22 O27 1.997 . S
Fe22 O28 2.002 . S
Fe22 O33 1.976 . S
Fe22 O36 1.996 . S
Fe23 O24 1.918 . S
Fe23 O31 1.997 . S
Fe23 O34 1.996 . S
Fe23 O38 1.976 . S
Fe23 O41 2.002 . S
O24 Fe22 1.918 . S
O24 Fe23 1.918 . S
O24 Fe25 1.918 . S
Fe25 O24 1.918 . S
Fe25 O26 2.002 . S
Fe25 O35 1.976 . S
Fe25 O39 1.996 . S
Fe25 O42 1.997 . S
O26 Fe25 2.002 . S
O26 C43 1.295 . S
O27 Fe22 1.997 . S
O27 C43 1.235 . S
O28 Fe22 2.002 . S
O28 C29 1.295 . S
C29 O28 1.295 . S
C29 O31 1.235 . S
C30 O35 1.287 . S
C30 O36 1.255 . S
O31 Fe23 1.997 . S
O31 C29 1.235 . S
C32 O38 1.287 . S
C32 O39 1.255 . S
O33 Fe22 1.976 . S
O33 C40 1.287 . S
O34 Fe23 1.996 . S
O34 C40 1.255 . S
O35 Fe25 1.976 . S
O35 C30 1.287 . S
O36 Fe22 1.996 . S
O36 C30 1.255 . S
C37 O41 1.295 . S
C37 O42 1.235 . S
O38 Fe23 1.976 . S
O38 C32 1.287 . S
O39 Fe25 1.996 . S
O39 C32 1.255 . S
C40 O33 1.287 . S
C40 O34 1.255 . S
O41 Fe23 2.002 . S
O41 C37 1.295 . S
O42 Fe25 1.997 . S
O42 C37 1.235 . S
C43 O26 1.295 . S
C43 O27 1.235 . S
Fe44 O46 1.918 1_556 S
Fe44 O49 1.997 . S
Fe44 O50 2.002 . S
Fe44 O55 1.976 . S
Fe44 O58 1.996 . S
Fe45 O46 1.918 . S
Fe45 O53 1.997 . S
Fe45 O56 1.996 . S
Fe45 O60 1.976 . S
Fe45 O63 2.002 . S
O46 Fe44 1.918 1_554 S
O46 Fe45 1.918 . S
O46 Fe47 1.918 . S
Fe47 O46 1.918 . S
Fe47 O48 2.002 1_554 S
Fe47 O57 1.976 1_554 S
Fe47 O61 1.996 . S
Fe47 O64 1.997 . S
O48 Fe47 2.002 1_556 S
O48 C65 1.295 . S
O49 Fe44 1.997 . S
O49 C65 1.235 . S
O50 Fe44 2.002 . S
O50 C51 1.295 1_556 S
C51 O50 1.295 1_554 S
C51 O53 1.235 . S
C52 O57 1.287 . S
C52 O58 1.255 . S
O53 Fe45 1.997 . S
O53 C51 1.235 . S
C54 O60 1.287 . S
C54 O61 1.255 . S
O55 Fe44 1.976 . S
O55 C62 1.287 1_556 S
O56 Fe45 1.996 . S
O56 C62 1.255 . S
O57 Fe47 1.976 1_556 S
O57 C52 1.287 . S
O58 Fe44 1.996 . S
O58 C52 1.255 . S
C59 O63 1.295 . S
C59 O64 1.235 . S
O60 Fe45 1.976 . S
O60 C54 1.287 . S
O61 Fe47 1.996 . S
O61 C54 1.255 . S
C62 O55 1.287 1_554 S
C62 O56 1.255 . S
O63 Fe45 2.002 . S
O63 C59 1.295 . S
O64 Fe47 1.997 . S
O64 C59 1.235 . S
C65 O48 1.295 . S
C65 O49 1.235 . S
Fe66 O68 1.918 . S
Fe66 O71 1.997 . S
Fe66 O72 2.002 . S
Fe66 O77 1.976 . S
Fe66 O80 1.996 . S
Fe67 O68 1.918 . S
Fe67 O75 1.997 . S
Fe67 O78 1.996 . S
Fe67 O82 1.976 . S
Fe67 O85 2.002 . S
O68 Fe66 1.918 . S
O68 Fe67 1.918 . S
O68 Fe69 1.918 . S
Fe69 O68 1.918 . S
Fe69 O70 2.002 . S
Fe69 O79 1.976 . S
Fe69 O83 1.996 . S
Fe69 O86 1.997 . S
O70 Fe69 2.002 . S
O70 C87 1.295 . S
O71 Fe66 1.997 . S
O71 C87 1.235 . S
O72 Fe66 2.002 . S
O72 C73 1.295 . S
C73 O72 1.295 . S
C73 O75 1.235 . S
C74 O79 1.287 . S
C74 O80 1.255 . S
O75 Fe67 1.997 . S
O75 C73 1.235 . S
C76 O82 1.287 . S
C76 O83 1.255 . S
O77 Fe66 1.976 . S
O77 C84 1.287 . S
O78 Fe67 1.996 . S
O78 C84 1.255 . S
O79 Fe69 1.976 . S
O79 C74 1.287 . S
O80 Fe66 1.996 . S
O80 C74 1.255 . S
C81 O85 1.295 . S
C81 O86 1.235 . S
O82 Fe67 1.976 . S
O82 C76 1.287 . S
O83 Fe69 1.996 . S
O83 C76 1.255 . S
C84 O77 1.287 . S
C84 O78 1.255 . S
O85 Fe67 2.002 . S
O85 C81 1.295 . S
O86 Fe69 1.997 . S
O86 C81 1.235 . S
C87 O70 1.295 . S
C87 O71 1.235 . S
O88 Cd89 2.300 . S
O88 C95 1.275 . S
Cd89 O88 2.300 . S
Cd89 O97 2.381 . S
Cd89 O98 2.378 1_556 S
O90 Cd91 2.385 1_556 S
O90 C95 1.255 . S
Cd91 O90 2.385 1_554 S
Cd91 O92 2.317 . S
O92 Cd91 2.317 . S
O92 C93 1.232 . S
C93 O92 1.232 . S
C93 O94 1.218 . S
O94 C93 1.218 . S
C95 O88 1.275 . S
C95 O90 1.255 . S
C96 O97 1.253 1_554 S
C96 O98 1.261 . S
O97 Cd89 2.381 . S
O97 C96 1.253 1_556 S
O98 Cd89 2.378 1_554 S
O98 C96 1.261 . S
O99 Cd100 2.300 1_655 S
O99 C106 1.275 . S
Cd100 O99 2.300 1_455 S
Cd100 O108 2.381 . S
Cd100 O109 2.378 . S
O101 Cd102 2.385 . S
O101 C106 1.255 . S
Cd102 O101 2.385 . S
Cd102 O103 2.317 . S
O103 Cd102 2.317 . S
O103 C104 1.232 . S
C104 O103 1.232 . S
C104 O105 1.218 . S
O105 C104 1.218 . S
C106 O99 1.275 . S
C106 O101 1.255 . S
C107 O108 1.258 . S
C107 O109 1.256 . S
O108 Cd100 2.381 . S
O108 C107 1.258 . S
O109 Cd100 2.378 . S
O109 C107 1.256 . S
O110 Cd111 2.300 . S
O110 C117 1.275 . S
Cd111 O110 2.300 . S
Cd111 O119 2.381 . S
Cd111 O120 2.378 1_554 S
O112 Cd113 2.385 1_554 S
O112 C117 1.255 . S
Cd113 O112 2.385 1_556 S
Cd113 O114 2.317 . S
O114 Cd113 2.317 . S
O114 C115 1.232 . S
C115 O114 1.232 . S
C115 O116 1.218 . S
O116 C115 1.218 . S
C117 O110 1.275 . S
C117 O112 1.255 . S
C118 O119 1.258 . S
C118 O120 1.256 1_554 S
O119 Cd111 2.381 . S
O119 C118 1.258 . S
O120 Cd111 2.378 1_556 S
O120 C118 1.256 1_556 S
O121 Cd122 2.300 1_455 S
O121 C128 1.275 . S
Cd122 O121 2.300 1_655 S
Cd122 O130 2.381 . S
Cd122 O131 2.378 . S
O123 Cd124 2.385 . S
O123 C128 1.255 . S
Cd124 O123 2.385 . S
Cd124 O125 2.317 . S
O125 Cd124 2.317 . S
O125 C126 1.232 . S
C126 O125 1.232 . S
C126 O127 1.218 . S
O127 C126 1.218 . S
C128 O121 1.275 . S
C128 O123 1.255 . S
C129 O130 1.258 . S
C129 O131 1.256 . S
O130 Cd122 2.381 . S
O130 C129 1.258 . S
O131 Cd122 2.378 . S
O131 C129 1.256 . S
O132 Cd133 2.300 1_565 S
O132 C139 1.275 . S
Cd133 O132 2.300 1_545 S
Cd133 O141 2.381 . S
Cd133 O142 2.378 . S
O134 Cd135 2.385 . S
O134 C139 1.255 . S
Cd135 O134 2.385 . S
Cd135 O136 2.317 . S
O136 Cd135 2.317 . S
O136 C137 1.232 . S
C137 O136 1.232 . S
C137 O138 1.218 . S
O138 C137 1.218 . S
C139 O132 1.275 . S
C139 O134 1.255 . S
C140 O141 1.258 . S
C140 O142 1.256 . S
O141 Cd133 2.381 . S
O141 C140 1.258 . S
O142 Cd133 2.378 . S
O142 C140 1.256 . S
O143 Cd144 2.300 . S
O143 C150 1.275 . S
Cd144 O143 2.300 . S
Cd144 O152 2.381 . S
Cd144 O153 2.378 1_554 S
O145 Cd146 2.385 1_554 S
O145 C150 1.255 . S
Cd146 O145 2.385 1_556 S
Cd146 O147 2.317 . S
O147 Cd146 2.317 . S
O147 C148 1.232 . S
C148 O147 1.232 . S
C148 O149 1.218 . S
O149 C148 1.218 . S
C150 O143 1.275 . S
C150 O145 1.255 . S
C151 O152 1.258 . S
C151 O153 1.256 1_554 S
O152 Cd144 2.381 . S
O152 C151 1.258 . S
O153 Cd144 2.378 1_556 S
O153 C151 1.256 1_556 S
O154 Cd155 2.300 1_545 S
O154 C161 1.275 . S
Cd155 O154 2.300 1_565 S
Cd155 O163 2.381 . S
Cd155 O164 2.378 . S
O156 Cd157 2.385 . S
O156 C161 1.255 . S
Cd157 O156 2.385 . S
Cd157 O158 2.317 . S
O158 Cd157 2.317 . S
O158 C159 1.232 . S
C159 O158 1.232 . S
C159 O160 1.218 . S
O160 C159 1.218 . S
C161 O154 1.275 . S
C161 O156 1.255 . S
C162 O163 1.258 . S
C162 O164 1.256 . S
O163 Cd155 2.381 . S
O163 C162 1.258 . S
O164 Cd155 2.378 . S
O164 C162 1.256 . S
O165 Cd166 2.300 . S
O165 C172 1.275 . S
Cd166 O165 2.300 . S
Cd166 O174 2.381 . S
Cd166 O175 2.378 1_556 S
O167 Cd168 2.385 1_556 S
O167 C172 1.255 . S
Cd168 O167 2.385 1_554 S
Cd168 O169 2.317 . S
O169 Cd168 2.317 . S
O169 C170 1.232 . S
C170 O169 1.232 . S
C170 O171 1.218 . S
O171 C170 1.218 . S
C172 O165 1.275 . S
C172 O167 1.255 . S
C173 O174 1.258 . S
C173 O175 1.256 1_556 S
O174 Cd166 2.381 . S
O174 C173 1.258 . S
O175 Cd166 2.378 1_554 S
O175 C173 1.256 1_554 S
C21 C126 1.986 . S
C40 C95 1.641 . S
C106 C54 1.491 . S
C73 C115 1.056 . S
C150 C74 1.602 . S
C159 C10 1.119 . S
C170 C37 1.775 . S
C139 C65 1.623 . S
C52 C104 1.030 . S
C87 C117 1.604 . S
C15 C128 1.794 . S
C93 C32 1.534 . S
C29 C172 1.978 . S
C137 C59 1.412 . S
C148 C84 0.982 . S
C8 C161 1.495 . S
C96 C7 1.611 . S
C107 C30 1.630 . S
C62 C118 1.488 . S
C81 C129 1.903 . S
C140 C76 1.578 . S
C18 C151 1.608 . S
C43 C162 1.532 . S
C51 C173 1.878 1_554 S
