# Generated by pormake.
# Topology bcu-b, (8,8)-cn, num edge types: 1
# Building blocks:
#     Node 0, Type 0, BuildingBlock: TAGTUT_clean_sbu_1, # of connection points: 8
#     Node 1, Type 1, BuildingBlock: TAGTUT_clean_sbu_1, # of connection points: 8
#     Edge 2, Type (0, 1), BuildingBlock: XIVTED_clean_linker_0, # of connection points: 2
#     Edge 3, Type (0, 1), BuildingBlock: XIVTED_clean_linker_0, # of connection points: 2
#     Edge 4, Type (0, 1), BuildingBlock: XIVTED_clean_linker_0, # of connection points: 2
#     Edge 5, Type (0, 1), BuildingBlock: XIVTED_clean_linker_0, # of connection points: 2
#     Edge 6, Type (0, 1), BuildingBlock: XIVTED_clean_linker_0, # of connection points: 2
#     Edge 7, Type (0, 1), BuildingBlock: XIVTED_clean_linker_0, # of connection points: 2
#     Edge 8, Type (0, 1), BuildingBlock: XIVTED_clean_linker_0, # of connection points: 2
#     Edge 9, Type (0, 1), BuildingBlock: XIVTED_clean_linker_0, # of connection points: 2
# Relax obj value: 0.017
# Max RMSD: 0.077
# Mean RMSD: 0.077
data_MOF--net-bcu-b--node1-TAGTUT_clean_sbu_1--node2-TAGTUT_clean_sbu_1--edge1-XIVTED_clean_linker_0
_symmetry_space_group_name_H-M    P1
_symmetry_Int_Tables_number       1
_symmetry_cell_setting            triclinic
loop_
_symmetry_equiv_pos_as_xyz
'x, y, z'
_cell_length_a     19.439462
_cell_length_b     18.739204
_cell_length_c     22.876604
_cell_angle_alpha  91.548976
_cell_angle_beta   91.292654
_cell_angle_gamma 107.76776
loop_
_atom_site_label
_atom_site_type_symbol
_atom_site_fract_x
_atom_site_fract_y
_atom_site_fract_z
_atom_type_partial_charge
C0 C 0.85926 0.15237 0.01688 0.0
C1 C 0.91547 0.13385 0.83714 0.0
C2 C 0.89817 0.84639 0.88678 0.0
Mg3 Mg 1.00094 0.15834 -0.04582 0.0
O4 O 0.96394 0.05676 -0.02856 0.0
Mg5 Mg 0.86658 -0.00035 0.93792 0.0
Mg6 Mg 1.02008 -0.01167 -0.0495 0.0
O7 O 0.07619 0.91989 0.92956 0.0
Mg8 Mg 0.03923 0.81818 0.94638 0.0
Mg9 Mg 0.17349 0.97686 -0.03673 0.0
C10 C 0.1417 0.13007 0.01445 0.0
C11 C 0.14086 0.07227 0.8567 0.0
O12 O 0.82778 0.08677 -0.00666 0.0
O13 O 0.92506 0.18924 0.00738 0.0
O14 O 0.87684 0.07284 0.8583 0.0
O15 O 0.97209 0.17567 0.86455 0.0
O16 O 0.10893 0.17482 -0.00613 0.0
O17 O 0.11613 0.05834 0.00707 0.0
C18 C 0.8995 0.90454 0.0445 0.0
O19 O 0.96519 0.91647 0.02922 0.0
O20 O 0.85585 0.93015 0.01596 0.0
O21 O 0.21252 0.89017 0.90783 0.0
O22 O 0.11526 0.78794 0.89284 0.0
O23 O 0.16322 0.90309 0.04266 0.0
C24 C 0.18115 0.8249 0.88373 0.0
O25 O 0.06797 0.8003 0.03588 0.0
O26 O 0.93102 0.80159 0.90712 0.0
C27 C 0.1246 0.84181 0.06346 0.0
O28 O 0.92395 0.91811 0.89408 0.0
O29 O 0.07507 0.06023 0.87178 0.0
O30 O 0.18442 0.04667 0.88537 0.0
C31 C 0.35935 0.65155 0.51715 0.0
C32 C 0.41602 0.63446 0.33746 0.0
C33 C 0.39893 0.34656 0.3866 0.0
Mg34 Mg 0.50133 0.65829 0.45457 0.0
O35 O 0.46447 0.55665 0.47154 0.0
Mg36 Mg 0.36717 0.49956 0.43777 0.0
Mg37 Mg 0.52071 0.48829 0.45064 0.0
O38 O 0.57671 0.41977 0.42966 0.0
Mg39 Mg 0.53957 0.31811 0.44676 0.0
Mg40 Mg 0.67406 0.47673 0.46317 0.0
C41 C 0.64246 0.63019 0.51432 0.0
C42 C 0.6413 0.57205 0.35667 0.0
O43 O 0.32801 0.58625 0.4931 0.0
O44 O 0.42523 0.68854 0.50803 0.0
O45 O 0.3774 0.57323 0.35832 0.0
O46 O 0.47265 0.676 0.36503 0.0
O47 O 0.60948 0.67482 0.49386 0.0
O48 O 0.61691 0.55842 0.50717 0.0
C49 C 0.39987 0.40431 0.54442 0.0
O50 O 0.46567 0.41638 0.52935 0.0
O51 O 0.35629 0.42985 0.51572 0.0
O52 O 0.71272 0.38958 0.40763 0.0
O53 O 0.61539 0.2872 0.39352 0.0
O54 O 0.66369 0.40338 0.54271 0.0
C55 C 0.6812 0.32403 0.38404 0.0
O56 O 0.56842 0.30057 0.53635 0.0
O57 O 0.43155 0.30161 0.40707 0.0
C58 C 0.62503 0.34235 0.5638 0.0
O59 O 0.42474 0.41823 0.39415 0.0
O60 O 0.57561 0.56016 0.37194 0.0
O61 O 0.6849 0.54635 0.38519 0.0
H62 H 0.19048 0.05372 0.09839 0.0
H63 H 0.35088 0.42332 0.30253 0.0
H64 H 0.21287 0.27759 0.04183 0.0
H65 H 0.32697 0.19925 0.35932 0.0
H66 H 0.29517 0.3705 0.20811 0.0
H67 H 0.24612 0.10668 0.19278 0.0
C68 C 0.20881 0.11411 0.10511 0.0
C69 C 0.19575 0.16116 0.06233 0.0
C70 C 0.30144 0.33285 0.24147 0.0
C71 C 0.2574 0.22192 0.17103 0.0
C72 C 0.33217 0.36293 0.29586 0.0
C73 C 0.34483 0.31575 0.33871 0.0
C74 C 0.28315 0.25515 0.22998 0.0
C75 C 0.31931 0.23789 0.32731 0.0
C76 C 0.23952 0.14427 0.15948 0.0
C77 C 0.22085 0.23903 0.07379 0.0
N78 N 0.29068 0.2101 0.27374 0.0
N79 N 0.24949 0.2669 0.12734 0.0
H80 H 0.89643 0.29553 0.06305 0.0
H81 H 0.64398 0.18088 0.33783 0.0
H82 H 0.74493 0.07513 0.08176 0.0
H83 H 0.79551 0.40127 0.31915 0.0
H84 H 0.68283 0.14026 0.24558 0.0
H85 H 0.85755 0.33617 0.15529 0.0
C86 C 0.85398 0.25597 0.08602 0.0
C87 C 0.82411 0.18161 0.06463 0.0
C88 C 0.70811 0.19731 0.26185 0.0
C89 C 0.78048 0.22755 0.17119 0.0
C90 C 0.68643 0.22044 0.31487 0.0
C91 C 0.71632 0.29479 0.33627 0.0
C92 C 0.75993 0.24887 0.22969 0.0
C93 C 0.77119 0.34337 0.30458 0.0
C94 C 0.83229 0.27911 0.13902 0.0
C95 C 0.76924 0.13303 0.09632 0.0
N96 N 0.79072 0.31975 0.25258 0.0
N97 N 0.74971 0.15666 0.14832 0.0
H98 H 0.93774 0.78758 0.09247 0.0
H99 H 0.60311 0.68905 0.30872 0.0
H100 H 0.79139 0.91907 0.11135 0.0
H101 H 0.74948 0.55759 0.28987 0.0
H102 H 0.66962 0.77289 0.23427 0.0
H103 H 0.87126 0.70378 0.16696 0.0
C104 C 0.89255 0.79945 0.11292 0.0
C105 C 0.86972 0.85982 0.09542 0.0
C106 C 0.68682 0.72535 0.24631 0.0
C107 C 0.79272 0.76411 0.17942 0.0
C108 C 0.64831 0.67719 0.28828 0.0
C109 C 0.67113 0.61682 0.30578 0.0
C110 C 0.74818 0.71257 0.22182 0.0
C111 C 0.73058 0.6042 0.27822 0.0
C112 C 0.85406 0.75132 0.15492 0.0
C113 C 0.8103 0.87246 0.12301 0.0
N114 N 0.76719 0.65179 0.23799 0.0
N115 N 0.7737 0.82488 0.16325 0.0
H116 H 0.09067 0.69621 0.09857 0.0
H117 H 0.45 0.78001 0.30224 0.0
H118 H 0.23561 0.91847 0.13863 0.0
H119 H 0.30496 0.55775 0.26236 0.0
H120 H 0.37459 0.83146 0.23945 0.0
H121 H 0.16608 0.64473 0.16134 0.0
C122 C 0.13723 0.73442 0.12165 0.0
C123 C 0.15692 0.81183 0.11285 0.0
C124 C 0.35967 0.77134 0.24399 0.0
C125 C 0.24489 0.75298 0.18345 0.0
C126 C 0.40341 0.7418 0.27919 0.0
C127 C 0.3837 0.6644 0.28805 0.0
C128 C 0.29573 0.72321 0.21742 0.0
C129 C 0.32212 0.61785 0.25729 0.0
C130 C 0.18098 0.70485 0.15684 0.0
C131 C 0.21847 0.85836 0.14365 0.0
N132 N 0.28005 0.64799 0.22393 0.0
N133 N 0.26054 0.82821 0.177 0.0
H134 H 0.30073 0.90155 0.82399 0.0
H135 H 0.23975 0.57493 0.57687 0.0
H136 H 0.1402 0.68434 0.83215 0.0
H137 H 0.40026 0.79214 0.56869 0.0
H138 H 0.19981 0.61544 0.66904 0.0
H139 H 0.34063 0.86105 0.7318 0.0
C140 C 0.27489 0.84483 0.80716 0.0
C141 C 0.21674 0.79647 0.83583 0.0
C142 C 0.24337 0.65444 0.64677 0.0
C143 C 0.26086 0.75044 0.72948 0.0
C144 C 0.26557 0.63165 0.59369 0.0
C145 C 0.32373 0.68001 0.56503 0.0
C146 C 0.27958 0.72606 0.67135 0.0
C147 C 0.35553 0.75268 0.58939 0.0
C148 C 0.29708 0.82205 0.75407 0.0
C149 C 0.18492 0.7238 0.81145 0.0
N150 N 0.33346 0.77322 0.64131 0.0
N151 N 0.20698 0.70327 0.75952 0.0
H152 H 0.10268 0.18909 0.80835 0.0
H153 H 0.43809 0.28753 0.59281 0.0
H154 H 0.24938 0.05789 0.79026 0.0
H155 H 0.29135 0.41871 0.61086 0.0
H156 H 0.37143 0.20386 0.66731 0.0
H157 H 0.16936 0.27279 0.73387 0.0
C158 C 0.14799 0.17726 0.78808 0.0
C159 C 0.17084 0.117 0.8058 0.0
C160 C 0.35418 0.2513 0.65508 0.0
C161 C 0.24807 0.21259 0.7218 0.0
C162 C 0.39277 0.29937 0.61307 0.0
C163 C 0.36991 0.35961 0.59533 0.0
C164 C 0.29269 0.26404 0.67936 0.0
C165 C 0.31031 0.37219 0.62269 0.0
C166 C 0.18659 0.22534 0.74608 0.0
C167 C 0.23044 0.10441 0.77844 0.0
N168 N 0.27363 0.3247 0.66295 0.0
N169 N 0.26712 0.15192 0.73819 0.0
H170 H 0.81016 0.05457 0.75849 0.0
H171 H 0.73023 0.42154 0.64257 0.0
H172 H 0.94306 0.27999 0.80512 0.0
H173 H 0.5975 0.19614 0.59567 0.0
H174 H 0.8061 0.37075 0.70493 0.0
H175 H 0.73426 0.10533 0.69612 0.0
C176 C 0.82442 0.1148 0.75462 0.0
C177 C 0.88306 0.16306 0.78746 0.0
C178 C 0.75996 0.33233 0.68154 0.0
C179 C 0.79482 0.22169 0.71707 0.0
C180 C 0.71599 0.3613 0.64638 0.0
C181 C 0.65741 0.31307 0.61347 0.0
C182 C 0.74563 0.25439 0.68385 0.0
C183 C 0.64178 0.23555 0.62032 0.0
C184 C 0.78044 0.14376 0.71945 0.0
C185 C 0.89873 0.24057 0.78053 0.0
N186 N 0.68613 0.20863 0.65419 0.0
N187 N 0.85436 0.26747 0.74666 0.0
H188 H 0.82045 0.69958 0.86437 0.0
H189 H 0.71946 0.77723 0.53684 0.0
H190 H 0.85596 0.92132 0.79841 0.0
H191 H 0.68519 0.55559 0.60265 0.0
H192 H 0.77444 0.83109 0.6312 0.0
H193 H 0.76535 0.64586 0.77002 0.0
C194 C 0.81501 0.73705 0.83054 0.0
C195 C 0.84392 0.81512 0.83912 0.0
C196 C 0.75565 0.77068 0.62481 0.0
C197 C 0.78275 0.75388 0.73043 0.0
C198 C 0.72514 0.73983 0.57064 0.0
C199 C 0.69661 0.66172 0.56201 0.0
C200 C 0.75766 0.72311 0.67071 0.0
C201 C 0.70603 0.6161 0.60728 0.0
C202 C 0.78444 0.70627 0.77637 0.0
C203 C 0.83481 0.86083 0.79381 0.0
N204 N 0.73476 0.64752 0.66002 0.0
N205 N 0.80601 0.82948 0.74107 0.0
loop_
_geom_bond_atom_site_label_1
_geom_bond_atom_site_label_2
_geom_bond_distance
_geom_bond_site_symmetry_2
_ccdc_geom_bond_type
C0 O12 1.241 . S
C0 O13 1.280 . S
C1 O14 1.277 . S
C1 O15 1.245 . S
C2 O26 1.247 . S
C2 O28 1.289 . S
Mg3 O4 1.926 . S
Mg3 O13 1.984 . S
Mg3 O15 1.988 1_554 S
Mg3 O16 2.061 1_655 S
O4 Mg3 1.926 . S
O4 Mg5 1.986 1_554 S
O4 Mg6 1.917 1_655 S
Mg5 O4 1.986 1_556 S
Mg5 O12 2.042 1_556 S
Mg5 O14 2.041 . S
Mg5 O20 2.038 1_546 S
Mg5 O28 2.238 1_545 S
Mg6 O4 1.917 1_455 S
Mg6 O7 1.917 1_544 S
Mg6 O17 2.106 . S
Mg6 O19 2.079 1_445 S
Mg6 O28 2.106 1_444 S
Mg6 O29 2.079 1_554 S
O7 Mg6 1.917 1_566 S
O7 Mg8 1.926 . S
O7 Mg9 1.986 1_556 S
Mg8 O7 1.926 . S
Mg8 O22 1.984 . S
Mg8 O25 1.988 1_556 S
Mg8 O26 2.061 1_455 S
Mg9 O7 1.986 1_554 S
Mg9 O17 2.238 1_565 S
Mg9 O21 2.042 1_554 S
Mg9 O23 2.041 . S
Mg9 O30 2.038 1_564 S
C10 O16 1.247 . S
C10 O17 1.289 . S
C11 O29 1.245 . S
C11 O30 1.274 . S
O12 C0 1.241 . S
O12 Mg5 2.042 1_554 S
O13 C0 1.280 . S
O13 Mg3 1.984 . S
O14 C1 1.277 . S
O14 Mg5 2.041 . S
O15 C1 1.245 . S
O15 Mg3 1.988 1_556 S
O16 Mg3 2.061 1_455 S
O16 C10 1.247 . S
O17 Mg6 2.106 . S
O17 Mg9 2.238 1_545 S
O17 C10 1.289 . S
C18 O19 1.245 . S
C18 O20 1.274 . S
O19 Mg6 2.079 1_665 S
O19 C18 1.245 . S
O20 Mg5 2.038 1_564 S
O20 C18 1.274 . S
O21 Mg9 2.042 1_556 S
O21 C24 1.241 . S
O22 Mg8 1.984 . S
O22 C24 1.280 . S
O23 Mg9 2.041 . S
O23 C27 1.277 . S
C24 O21 1.241 . S
C24 O22 1.280 . S
O25 Mg8 1.988 1_554 S
O25 C27 1.245 . S
O26 C2 1.247 . S
O26 Mg8 2.061 1_655 S
C27 O23 1.277 . S
C27 O25 1.245 . S
O28 C2 1.289 . S
O28 Mg5 2.238 1_565 S
O28 Mg6 2.106 1_666 S
O29 Mg6 2.079 1_556 S
O29 C11 1.245 . S
O30 Mg9 2.038 1_546 S
O30 C11 1.274 . S
C31 O43 1.241 . S
C31 O44 1.280 . S
C32 O45 1.277 . S
C32 O46 1.245 . S
C33 O57 1.247 . S
C33 O59 1.289 . S
Mg34 O35 1.926 . S
Mg34 O44 1.984 . S
Mg34 O46 1.988 . S
Mg34 O47 2.061 . S
O35 Mg34 1.926 . S
O35 Mg36 1.986 . S
O35 Mg37 1.917 . S
Mg36 O35 1.986 . S
Mg36 O43 2.042 . S
Mg36 O45 2.041 . S
Mg36 O51 2.038 . S
Mg36 O59 2.238 . S
Mg37 O35 1.917 . S
Mg37 O38 1.917 . S
Mg37 O48 2.106 . S
Mg37 O50 2.079 . S
Mg37 O59 2.106 . S
Mg37 O60 2.079 . S
O38 Mg37 1.917 . S
O38 Mg39 1.926 . S
O38 Mg40 1.986 . S
Mg39 O38 1.926 . S
Mg39 O53 1.984 . S
Mg39 O56 1.988 . S
Mg39 O57 2.061 . S
Mg40 O38 1.986 . S
Mg40 O48 2.238 . S
Mg40 O52 2.042 . S
Mg40 O54 2.041 . S
Mg40 O61 2.038 . S
C41 O47 1.247 . S
C41 O48 1.289 . S
C42 O60 1.245 . S
C42 O61 1.274 . S
O43 C31 1.241 . S
O43 Mg36 2.042 . S
O44 C31 1.280 . S
O44 Mg34 1.984 . S
O45 C32 1.277 . S
O45 Mg36 2.041 . S
O46 C32 1.245 . S
O46 Mg34 1.988 . S
O47 Mg34 2.061 . S
O47 C41 1.247 . S
O48 Mg37 2.106 . S
O48 Mg40 2.238 . S
O48 C41 1.289 . S
C49 O50 1.245 . S
C49 O51 1.274 . S
O50 Mg37 2.079 . S
O50 C49 1.245 . S
O51 Mg36 2.038 . S
O51 C49 1.274 . S
O52 Mg40 2.042 . S
O52 C55 1.241 . S
O53 Mg39 1.984 . S
O53 C55 1.280 . S
O54 Mg40 2.041 . S
O54 C58 1.277 . S
C55 O52 1.241 . S
C55 O53 1.280 . S
O56 Mg39 1.988 . S
O56 C58 1.245 . S
O57 C33 1.247 . S
O57 Mg39 2.061 . S
C58 O54 1.277 . S
C58 O56 1.245 . S
O59 C33 1.289 . S
O59 Mg36 2.238 . S
O59 Mg37 2.106 . S
O60 Mg37 2.079 . S
O60 C42 1.245 . S
O61 Mg40 2.038 . S
O61 C42 1.274 . S
H62 C68 0.930 . S
H63 C72 0.930 . S
H64 C77 0.929 . S
H65 C75 0.929 . S
H66 C70 0.929 . S
H67 C76 0.929 . S
C68 H62 0.930 . S
C68 C69 1.367 . S
C68 C76 1.378 . S
C69 C68 1.367 . S
C69 C77 1.433 . S
C70 H66 0.929 . S
C70 C72 1.378 . S
C70 C74 1.350 . S
C71 C74 1.463 . S
C71 C76 1.350 . S
C71 N79 1.427 . S
C72 H63 0.930 . S
C72 C70 1.378 . S
C72 C73 1.367 . S
C73 C72 1.367 . S
C73 C75 1.433 . S
C74 C70 1.350 . S
C74 C71 1.463 . S
C74 N78 1.427 . S
C75 H65 0.929 . S
C75 C73 1.433 . S
C75 N78 1.384 . S
C76 H67 0.929 . S
C76 C68 1.378 . S
C76 C71 1.350 . S
C77 H64 0.929 . S
C77 C69 1.433 . S
C77 N79 1.384 . S
N78 C74 1.427 . S
N78 C75 1.384 . S
N79 C71 1.427 . S
N79 C77 1.384 . S
H80 C86 0.930 . S
H81 C90 0.930 . S
H82 C95 0.929 . S
H83 C93 0.929 . S
H84 C88 0.929 . S
H85 C94 0.929 . S
C86 H80 0.930 . S
C86 C87 1.367 . S
C86 C94 1.378 . S
C87 C86 1.367 . S
C87 C95 1.433 . S
C88 H84 0.929 . S
C88 C90 1.378 . S
C88 C92 1.350 . S
C89 C92 1.463 . S
C89 C94 1.350 . S
C89 N97 1.427 . S
C90 H81 0.930 . S
C90 C88 1.378 . S
C90 C91 1.367 . S
C91 C90 1.367 . S
C91 C93 1.433 . S
C92 C88 1.350 . S
C92 C89 1.463 . S
C92 N96 1.427 . S
C93 H83 0.929 . S
C93 C91 1.433 . S
C93 N96 1.384 . S
C94 H85 0.929 . S
C94 C86 1.378 . S
C94 C89 1.350 . S
C95 H82 0.929 . S
C95 C87 1.433 . S
C95 N97 1.384 . S
N96 C92 1.427 . S
N96 C93 1.384 . S
N97 C89 1.427 . S
N97 C95 1.384 . S
H98 C104 0.930 . S
H99 C108 0.930 . S
H100 C113 0.929 . S
H101 C111 0.929 . S
H102 C106 0.929 . S
H103 C112 0.929 . S
C104 H98 0.930 . S
C104 C105 1.367 . S
C104 C112 1.378 . S
C105 C104 1.367 . S
C105 C113 1.433 . S
C106 H102 0.929 . S
C106 C108 1.378 . S
C106 C110 1.350 . S
C107 C110 1.463 . S
C107 C112 1.350 . S
C107 N115 1.427 . S
C108 H99 0.930 . S
C108 C106 1.378 . S
C108 C109 1.367 . S
C109 C108 1.367 . S
C109 C111 1.433 . S
C110 C106 1.350 . S
C110 C107 1.463 . S
C110 N114 1.427 . S
C111 H101 0.929 . S
C111 C109 1.433 . S
C111 N114 1.384 . S
C112 H103 0.929 . S
C112 C104 1.378 . S
C112 C107 1.350 . S
C113 H100 0.929 . S
C113 C105 1.433 . S
C113 N115 1.384 . S
N114 C110 1.427 . S
N114 C111 1.384 . S
N115 C107 1.427 . S
N115 C113 1.384 . S
H116 C122 0.930 . S
H117 C126 0.930 . S
H118 C131 0.929 . S
H119 C129 0.929 . S
H120 C124 0.929 . S
H121 C130 0.929 . S
C122 H116 0.930 . S
C122 C123 1.367 . S
C122 C130 1.378 . S
C123 C122 1.367 . S
C123 C131 1.433 . S
C124 H120 0.929 . S
C124 C126 1.378 . S
C124 C128 1.350 . S
C125 C128 1.463 . S
C125 C130 1.350 . S
C125 N133 1.427 . S
C126 H117 0.930 . S
C126 C124 1.378 . S
C126 C127 1.367 . S
C127 C126 1.367 . S
C127 C129 1.433 . S
C128 C124 1.350 . S
C128 C125 1.463 . S
C128 N132 1.427 . S
C129 H119 0.929 . S
C129 C127 1.433 . S
C129 N132 1.384 . S
C130 H121 0.929 . S
C130 C122 1.378 . S
C130 C125 1.350 . S
C131 H118 0.929 . S
C131 C123 1.433 . S
C131 N133 1.384 . S
N132 C128 1.427 . S
N132 C129 1.384 . S
N133 C125 1.427 . S
N133 C131 1.384 . S
H134 C140 0.930 . S
H135 C144 0.930 . S
H136 C149 0.929 . S
H137 C147 0.929 . S
H138 C142 0.929 . S
H139 C148 0.929 . S
C140 H134 0.930 . S
C140 C141 1.367 . S
C140 C148 1.378 . S
C141 C140 1.367 . S
C141 C149 1.433 . S
C142 H138 0.929 . S
C142 C144 1.378 . S
C142 C146 1.350 . S
C143 C146 1.463 . S
C143 C148 1.350 . S
C143 N151 1.427 . S
C144 H135 0.930 . S
C144 C142 1.378 . S
C144 C145 1.367 . S
C145 C144 1.367 . S
C145 C147 1.433 . S
C146 C142 1.350 . S
C146 C143 1.463 . S
C146 N150 1.427 . S
C147 H137 0.929 . S
C147 C145 1.433 . S
C147 N150 1.384 . S
C148 H139 0.929 . S
C148 C140 1.378 . S
C148 C143 1.350 . S
C149 H136 0.929 . S
C149 C141 1.433 . S
C149 N151 1.384 . S
N150 C146 1.427 . S
N150 C147 1.384 . S
N151 C143 1.427 . S
N151 C149 1.384 . S
H152 C158 0.930 . S
H153 C162 0.930 . S
H154 C167 0.929 . S
H155 C165 0.929 . S
H156 C160 0.929 . S
H157 C166 0.929 . S
C158 H152 0.930 . S
C158 C159 1.367 . S
C158 C166 1.378 . S
C159 C158 1.367 . S
C159 C167 1.433 . S
C160 H156 0.929 . S
C160 C162 1.378 . S
C160 C164 1.350 . S
C161 C164 1.463 . S
C161 C166 1.350 . S
C161 N169 1.427 . S
C162 H153 0.930 . S
C162 C160 1.378 . S
C162 C163 1.367 . S
C163 C162 1.367 . S
C163 C165 1.433 . S
C164 C160 1.350 . S
C164 C161 1.463 . S
C164 N168 1.427 . S
C165 H155 0.929 . S
C165 C163 1.433 . S
C165 N168 1.384 . S
C166 H157 0.929 . S
C166 C158 1.378 . S
C166 C161 1.350 . S
C167 H154 0.929 . S
C167 C159 1.433 . S
C167 N169 1.384 . S
N168 C164 1.427 . S
N168 C165 1.384 . S
N169 C161 1.427 . S
N169 C167 1.384 . S
H170 C176 0.930 . S
H171 C180 0.930 . S
H172 C185 0.929 . S
H173 C183 0.929 . S
H174 C178 0.929 . S
H175 C184 0.929 . S
C176 H170 0.930 . S
C176 C177 1.367 . S
C176 C184 1.378 . S
C177 C176 1.367 . S
C177 C185 1.433 . S
C178 H174 0.929 . S
C178 C180 1.378 . S
C178 C182 1.350 . S
C179 C182 1.463 . S
C179 C184 1.350 . S
C179 N187 1.427 . S
C180 H171 0.930 . S
C180 C178 1.378 . S
C180 C181 1.367 . S
C181 C180 1.367 . S
C181 C183 1.433 . S
C182 C178 1.350 . S
C182 C179 1.463 . S
C182 N186 1.427 . S
C183 H173 0.929 . S
C183 C181 1.433 . S
C183 N186 1.384 . S
C184 H175 0.929 . S
C184 C176 1.378 . S
C184 C179 1.350 . S
C185 H172 0.929 . S
C185 C177 1.433 . S
C185 N187 1.384 . S
N186 C182 1.427 . S
N186 C183 1.384 . S
N187 C179 1.427 . S
N187 C185 1.384 . S
H188 C194 0.930 . S
H189 C198 0.930 . S
H190 C203 0.929 . S
H191 C201 0.929 . S
H192 C196 0.929 . S
H193 C202 0.929 . S
C194 H188 0.930 . S
C194 C195 1.367 . S
C194 C202 1.378 . S
C195 C194 1.367 . S
C195 C203 1.433 . S
C196 H192 0.929 . S
C196 C198 1.378 . S
C196 C200 1.350 . S
C197 C200 1.463 . S
C197 C202 1.350 . S
C197 N205 1.427 . S
C198 H189 0.930 . S
C198 C196 1.378 . S
C198 C199 1.367 . S
C199 C198 1.367 . S
C199 C201 1.433 . S
C200 C196 1.350 . S
C200 C197 1.463 . S
C200 N204 1.427 . S
C201 H191 0.929 . S
C201 C199 1.433 . S
C201 N204 1.384 . S
C202 H193 0.929 . S
C202 C194 1.378 . S
C202 C197 1.350 . S
C203 H190 0.929 . S
C203 C195 1.433 . S
C203 N205 1.384 . S
N204 C200 1.427 . S
N204 C201 1.384 . S
N205 C197 1.427 . S
N205 C203 1.384 . S
C69 C10 0.911 . S
C73 C33 0.908 . S
C87 C0 1.562 . S
C91 C55 1.561 . S
C105 C18 1.550 . S
C109 C42 1.550 . S
C123 C27 1.720 . S
C127 C32 1.718 . S
C141 C24 1.573 . S
C145 C31 1.575 . S
C163 C49 1.544 . S
C159 C11 1.544 . S
C177 C1 1.726 . S
C181 C58 1.728 . S
C199 C41 0.890 . S
C195 C2 0.893 . S
