# Generated by pormake.
# Topology scu, (8,4)-cn, num edge types: 1
# Building blocks:
#     Node 0, Type 0, BuildingBlock: VETTIZ_charged_sbu_0, # of connection points: 8
#     Node 1, Type 1, BuildingBlock: ESEHIV_clean_sbu_0, # of connection points: 4
#     Node 2, Type 1, BuildingBlock: ESEHIV_clean_sbu_0, # of connection points: 4
#     Edge 3, Type (0, 1), BuildingBlock: AJUNOK_clean_linker_0, # of connection points: 2
#     Edge 4, Type (0, 1), BuildingBlock: AJUNOK_clean_linker_0, # of connection points: 2
#     Edge 5, Type (0, 1), BuildingBlock: AJUNOK_clean_linker_0, # of connection points: 2
#     Edge 6, Type (0, 1), BuildingBlock: AJUNOK_clean_linker_0, # of connection points: 2
#     Edge 7, Type (0, 1), BuildingBlock: AJUNOK_clean_linker_0, # of connection points: 2
#     Edge 8, Type (0, 1), BuildingBlock: AJUNOK_clean_linker_0, # of connection points: 2
#     Edge 9, Type (0, 1), BuildingBlock: AJUNOK_clean_linker_0, # of connection points: 2
#     Edge 10, Type (0, 1), BuildingBlock: AJUNOK_clean_linker_0, # of connection points: 2
# Relax obj value: 0.004
# Max RMSD: 0.097
# Mean RMSD: 0.076
data_MOF--net-scu--node1-VETTIZ_charged_sbu_0--node2-ESEHIV_clean_sbu_0--edge1-AJUNOK_clean_linker_0
_symmetry_space_group_name_H-M    P1
_symmetry_Int_Tables_number       1
_symmetry_cell_setting            triclinic
loop_
_symmetry_equiv_pos_as_xyz
'x, y, z'
_cell_length_a     20.17604
_cell_length_b     20.193499
_cell_length_c     14.339843
_cell_angle_alpha  93.694271
_cell_angle_beta   93.55561
_cell_angle_gamma 92.223946
loop_
_atom_site_label
_atom_site_type_symbol
_atom_site_fract_x
_atom_site_fract_y
_atom_site_fract_z
_atom_type_partial_charge
Fe0 Fe 0.04746 0.07936 0.25892 0.0
O1 O 0.03799 0.0766 0.12169 0.0
Fe2 Fe 0.06042 0.98762 0.04799 0.0
Fe3 Fe 0.9535 0.09441 0.04887 0.0
O4 O 0.04332 0.07248 0.1209 0.0
O5 O 0.97573 1.0052 0.97543 0.0
O6 O 0.97167 1.01044 0.97478 0.0
Fe7 Fe 0.96901 1.00088 0.83756 0.0
C8 C 0.8981 0.04283 0.22413 0.0
O9 O 0.03304 0.17951 0.24711 0.0
O10 O 0.94481 0.18047 0.13682 0.0
O11 O 0.07016 0.9931 0.82406 0.0
O12 O 0.11654 0.03815 0.95814 0.0
O13 O 0.1491 0.98462 0.13487 0.0
O14 O 0.14724 0.07734 0.23855 0.0
O15 O 1.00748 0.15198 0.96295 0.0
O16 O 0.97893 0.10107 0.82248 0.0
C17 C 0.17751 0.029 0.19713 0.0
O18 O 0.96986 0.90137 0.85785 0.0
O19 O 0.06282 0.89861 0.9609 0.0
O20 O 0.94694 0.07026 0.2746 0.0
O21 O 0.89705 0.0391 0.13483 0.0
C22 C 0.98399 0.20801 0.20513 0.0
C23 C 1.00286 0.1512 0.87373 0.0
C24 C 0.84008 0.0646 0.89227 0.0
O25 O 0.86709 0.10295 0.96186 0.0
O26 O 0.86883 1.01602 0.84935 0.0
C27 C 0.12121 1.01663 0.87364 0.0
O28 O 1.00952 0.93196 0.13787 0.0
O29 O 0.05435 0.97833 0.27219 0.0
C30 C 1.01727 0.87052 0.90006 0.0
C31 C 0.03089 0.92737 0.22238 0.0
Cu32 Cu 0.03395 0.53381 0.54089 0.0
N33 N 0.08226 0.46964 0.60029 0.0
N34 N 0.09143 0.37984 0.68292 0.0
C35 C 0.04993 0.41925 0.6374 0.0
C36 C 0.15294 0.40689 0.67537 0.0
C37 C 0.14719 0.46241 0.62355 0.0
O38 O 0.96578 0.48041 0.46421 0.0
C39 C 0.0504 0.62067 0.69407 0.0
O40 O 0.11168 0.60462 0.68041 0.0
H41 H 0.9963 0.4127 0.63303 0.0
H42 H 0.18716 0.49564 0.60586 0.0
N43 N 0.07986 0.58962 0.46566 0.0
N44 N 0.09002 0.67719 0.37907 0.0
C45 C 0.05886 0.65051 0.44896 0.0
C46 C 0.12703 0.57752 0.40511 0.0
C47 C 0.1333 0.6317 0.35121 0.0
C48 C 0.96475 0.47379 0.37497 0.0
O49 O 0.99186 0.52114 0.32955 0.0
H50 H 1.01801 0.67285 0.48302 0.0
H51 H 0.15188 0.53121 0.39675 0.0
O52 O 1.00346 0.59259 0.64007 0.0
H53 H 0.19853 0.38774 0.7046 0.0
H54 H 0.16556 0.63637 0.29419 0.0
Cu55 Cu 0.51657 1.01064 0.55276 0.0
N56 N 0.4604 0.96688 0.63035 0.0
N57 N 0.37283 0.95856 0.7179 0.0
C58 C 0.39923 0.98789 0.64621 0.0
C59 C 0.41878 0.91652 0.7479 0.0
C60 C 0.4729 0.92162 0.69342 0.0
O61 O 0.4577 0.04019 0.45283 0.0
C62 C 0.57618 0.08274 0.71676 0.0
O63 O 0.52721 0.05837 0.76196 0.0
H64 H 0.37642 0.02749 0.61004 0.0
H65 H 0.51947 0.89737 0.703 0.0
N66 N 0.5801 0.96012 0.49423 0.0
N67 N 0.66926 0.94816 0.4105 0.0
C68 C 0.6347 0.98997 0.46368 0.0
C69 C 0.58036 0.89645 0.45949 0.0
C70 C 0.63539 0.88909 0.40688 0.0
C71 C 0.42692 0.99237 0.40347 0.0
O72 O 0.43935 0.93143 0.42365 0.0
H73 H 0.64716 0.04255 0.47636 0.0
H74 H 0.5421 0.85879 0.46839 0.0
O75 O 0.57118 0.07908 0.62738 0.0
H76 H 0.41444 0.88597 0.80672 0.0
H77 H 0.64898 0.84436 0.36824 0.0
C78 C 0.9688 0.28674 0.34157 0.0
C79 C 0.96936 0.27505 0.24404 0.0
C80 C 0.96111 0.35052 0.38264 0.0
C81 C 0.95565 0.40579 0.32804 0.0
H82 H 0.97579 0.24627 0.38671 0.0
H83 H 0.96336 0.35698 0.45821 0.0
S84 S 0.94833 0.40026 0.06806 0.0
N85 N 0.95794 0.32228 0.0928 0.0
N86 N 0.94593 0.44322 0.16981 0.0
C87 C 0.95277 0.39413 0.22973 0.0
C88 C 0.9591 0.32854 0.18779 0.0
C89 C 0.78488 0.98351 0.22143 0.0
C90 C 0.84033 1.01576 0.2727 0.0
C91 C 0.72996 0.95876 0.2668 0.0
C92 C 0.72832 0.96594 0.36479 0.0
H93 H 0.78345 0.97789 0.1457 0.0
H94 H 0.68764 0.93584 0.22504 0.0
S95 S 0.86094 0.04116 0.53266 0.0
N96 N 0.89027 0.04936 0.42901 0.0
N97 N 0.78678 1.00389 0.51191 0.0
C98 C 0.7834 0.99645 0.41685 0.0
C99 C 0.83943 0.02102 0.37149 0.0
C100 C 0.04995 0.85623 0.35784 0.0
C101 C 0.03956 0.8609 0.26031 0.0
C102 C 0.06615 0.79612 0.3959 0.0
C103 C 0.0741 0.73848 0.3381 0.0
H104 H 0.04626 0.89963 0.40541 0.0
H105 H 0.07383 0.7949 0.47119 0.0
S106 S 0.04844 0.72166 0.07955 0.0
N107 N 0.03513 0.80047 0.10729 0.0
N108 N 0.06669 0.6882 0.17948 0.0
C109 C 0.06269 0.7417 0.24096 0.0
C110 C 0.04499 0.80263 0.20199 0.0
C111 C 0.28262 0.07472 0.2834 0.0
C112 C 0.24713 1.02086 0.23297 0.0
C113 C 0.34308 0.0662 0.33372 0.0
C114 C 0.37057 1.00347 0.33559 0.0
H115 H 0.2622 0.12357 0.28752 0.0
H116 H 0.36651 0.10843 0.37523 0.0
S117 S 0.30333 0.84848 0.20282 0.0
N118 N 0.24798 0.90415 0.17961 0.0
N119 N 0.36224 0.88821 0.27226 0.0
C120 C 0.33846 0.95031 0.27922 0.0
C121 C 0.27663 0.95896 0.22836 0.0
C122 C 0.08681 0.77531 0.85616 0.0
C123 C 0.02362 0.8006 0.86556 0.0
C124 C 0.09442 0.71493 0.80499 0.0
C125 C 0.03916 0.67769 0.76092 0.0
H126 H 0.13098 0.8041 0.88366 0.0
H127 H 0.1445 0.69924 0.79616 0.0
S128 S 0.86219 0.71664 0.77996 0.0
N129 N 0.90415 0.77954 0.83852 0.0
N130 N 0.9186 0.66639 0.7414 0.0
C131 C 0.9754 0.69989 0.77631 0.0
C132 C 0.96763 0.76128 0.82878 0.0
C133 C 0.19241 0.99441 0.7383 0.0
C134 C 0.1879 1.00822 0.83542 0.0
C135 C 0.25294 0.97873 0.70055 0.0
C136 C 0.31126 0.97476 0.75836 0.0
H137 H 0.14857 0.99493 0.69079 0.0
H138 H 0.25397 0.96823 0.62565 0.0
S139 S 0.32903 1.01122 1.01531 0.0
N140 N 0.24943 1.02074 0.98765 0.0
N141 N 0.36242 0.99002 0.91609 0.0
C142 C 0.30825 0.9898 0.85491 0.0
C143 C 0.24688 1.00698 0.8935 0.0
C144 C 0.07409 0.25657 0.86804 0.0
C145 C 0.0253 0.21045 0.82547 0.0
C146 C 0.09739 0.31089 0.82027 0.0
C147 C 0.07197 0.32136 0.729 0.0
H148 H 0.09491 0.25032 0.93822 0.0
H149 H 0.13433 0.34571 0.8555 0.0
S150 S 0.94412 0.21579 0.58625 0.0
N151 N 0.9524 0.17995 0.68618 0.0
N152 N 0.99689 0.28069 0.59751 0.0
C153 C 0.02361 0.27561 0.68591 0.0
C154 C 1.00008 0.22059 0.73381 0.0
C155 C 0.76349 0.08376 0.75552 0.0
C156 C 0.77347 0.07979 0.85271 0.0
C157 C 0.70004 0.09067 0.71293 0.0
C158 C 0.6435 0.09261 0.76585 0.0
H159 H 0.80515 0.07999 0.71176 0.0
H160 H 0.6952 0.09069 0.63732 0.0
S161 S 0.64468 0.09186 1.02523 0.0
N162 N 0.72345 0.08495 1.00232 0.0
N163 N 0.60326 0.09658 0.92292 0.0
C164 C 0.65356 0.09291 0.86429 0.0
C165 C 0.71874 0.08681 0.90762 0.0
loop_
_geom_bond_atom_site_label_1
_geom_bond_atom_site_label_2
_geom_bond_distance
_geom_bond_site_symmetry_2
_ccdc_geom_bond_type
Fe0 O1 1.886 1_455 S
Fe0 O4 1.715 1_545 S
Fe0 O9 2.077 . S
Fe0 O14 1.935 . S
Fe0 O20 2.077 1_455 S
Fe0 O29 1.935 1_445 S
O1 Fe0 1.886 1_655 S
O1 Fe3 1.715 . S
Fe2 O4 1.886 . S
Fe2 O5 1.715 1_554 S
Fe2 O12 1.935 1_554 S
Fe2 O13 2.077 . S
Fe2 O19 1.935 1_554 S
Fe2 O28 2.077 . S
Fe3 O1 1.715 . S
Fe3 O6 1.886 1_554 S
Fe3 O10 1.935 . S
Fe3 O15 2.077 1_554 S
Fe3 O21 1.935 . S
Fe3 O25 2.077 1_554 S
O4 Fe0 1.715 1_565 S
O4 Fe2 1.886 . S
O5 Fe2 1.715 1_556 S
O5 Fe7 1.886 1_455 S
O6 Fe3 1.886 1_556 S
O6 Fe7 1.715 1_545 S
Fe7 O5 1.886 1_655 S
Fe7 O6 1.715 1_565 S
Fe7 O11 2.077 1_655 S
Fe7 O16 1.935 1_665 S
Fe7 O18 2.077 . S
Fe7 O26 1.935 . S
C8 O20 1.381 . S
C8 O21 1.421 . S
O9 Fe0 2.077 . S
O9 C22 1.381 1_455 S
O10 Fe3 1.935 . S
O10 C22 1.421 . S
O11 Fe7 2.077 1_455 S
O11 C27 1.381 . S
O12 Fe2 1.935 1_556 S
O12 C27 1.421 . S
O13 Fe2 2.077 . S
O13 C17 1.381 . S
O14 Fe0 1.935 . S
O14 C17 1.421 1_545 S
O15 Fe3 2.077 1_556 S
O15 C23 1.381 . S
O16 Fe7 1.935 1_445 S
O16 C23 1.421 1_455 S
C17 O13 1.381 . S
C17 O14 1.421 1_565 S
O18 Fe7 2.077 . S
O18 C30 1.381 1_655 S
O19 Fe2 1.935 1_556 S
O19 C30 1.421 . S
O20 Fe0 2.077 1_655 S
O20 C8 1.381 . S
O21 Fe3 1.935 . S
O21 C8 1.421 . S
C22 O9 1.381 1_655 S
C22 O10 1.421 . S
C23 O15 1.381 . S
C23 O16 1.421 1_655 S
C24 O25 1.381 . S
C24 O26 1.421 1_545 S
O25 Fe3 2.077 1_556 S
O25 C24 1.381 . S
O26 Fe7 1.935 . S
O26 C24 1.421 1_565 S
C27 O11 1.381 . S
C27 O12 1.421 . S
O28 Fe2 2.077 . S
O28 C31 1.381 . S
O29 Fe0 1.935 1_665 S
O29 C31 1.421 1_655 S
C30 O18 1.381 1_455 S
C30 O19 1.421 . S
C31 O28 1.381 . S
C31 O29 1.421 1_455 S
Cu32 N33 1.999 . S
Cu32 O38 1.974 . S
Cu32 N43 1.985 . S
Cu32 O52 1.959 . S
N33 Cu32 1.999 . S
N33 C35 1.263 . S
N33 C37 1.389 . S
N34 C35 1.358 . S
N34 C36 1.400 . S
C35 N33 1.263 . S
C35 N34 1.358 . S
C35 H41 0.930 1_655 S
C36 N34 1.400 . S
C36 C37 1.351 . S
C36 H53 0.930 . S
C37 N33 1.389 . S
C37 C36 1.351 . S
C37 H42 0.930 . S
O38 Cu32 1.974 . S
O38 C48 1.282 1_655 S
C39 O40 1.261 . S
C39 O52 1.251 1_455 S
O40 C39 1.261 . S
H41 C35 0.930 1_455 S
H42 C37 0.930 . S
N43 Cu32 1.985 . S
N43 C45 1.335 . S
N43 C46 1.390 1_655 S
N44 C45 1.345 . S
N44 C47 1.336 1_655 S
C45 N43 1.335 . S
C45 N44 1.345 . S
C45 H50 0.930 . S
C46 N43 1.390 1_455 S
C46 C47 1.346 . S
C46 H51 0.930 . S
C47 N44 1.336 1_455 S
C47 C46 1.346 . S
C47 H54 0.929 . S
C48 O38 1.282 1_455 S
C48 O49 1.216 . S
O49 C48 1.216 . S
H50 C45 0.930 . S
H51 C46 0.930 . S
O52 Cu32 1.959 . S
O52 C39 1.251 1_655 S
H53 C36 0.930 . S
H54 C47 0.929 . S
Cu55 N56 1.999 . S
Cu55 O61 1.974 . S
Cu55 N66 1.985 . S
Cu55 O75 1.959 . S
N56 Cu55 1.999 . S
N56 C58 1.263 . S
N56 C60 1.389 . S
N57 C58 1.358 . S
N57 C59 1.400 . S
C58 N56 1.263 . S
C58 N57 1.358 . S
C58 H64 0.930 1_545 S
C59 N57 1.400 . S
C59 C60 1.351 . S
C59 H76 0.930 . S
C60 N56 1.389 . S
C60 C59 1.351 . S
C60 H65 0.930 . S
O61 Cu55 1.974 . S
O61 C71 1.282 1_545 S
C62 O63 1.261 . S
C62 O75 1.251 1_565 S
O63 C62 1.261 . S
H64 C58 0.930 1_565 S
H65 C60 0.930 . S
N66 Cu55 1.985 . S
N66 C68 1.335 . S
N66 C69 1.390 1_545 S
N67 C68 1.345 . S
N67 C70 1.336 1_545 S
C68 N66 1.335 . S
C68 N67 1.345 . S
C68 H73 0.930 . S
C69 N66 1.390 1_565 S
C69 C70 1.346 . S
C69 H74 0.930 . S
C70 N67 1.336 1_565 S
C70 C69 1.346 . S
C70 H77 0.929 . S
C71 O61 1.282 1_565 S
C71 O72 1.216 . S
O72 C71 1.216 . S
H73 C68 0.930 . S
H74 C69 0.930 . S
O75 Cu55 1.959 . S
O75 C62 1.251 1_545 S
H76 C59 0.930 . S
H77 C70 0.929 . S
C78 C79 1.369 . S
C78 C80 1.419 . S
C78 H82 0.930 . S
C79 C78 1.369 . S
C79 C88 1.429 1_455 S
C80 C78 1.419 . S
C80 C81 1.363 . S
C80 H83 0.929 . S
C81 C80 1.363 . S
C81 C87 1.428 1_455 S
H82 C78 0.930 . S
H83 C80 0.929 . S
S84 N85 1.613 . S
S84 N86 1.610 . S
N85 S84 1.613 . S
N85 C88 1.350 . S
N86 S84 1.610 . S
N86 C87 1.351 . S
C87 C81 1.428 1_655 S
C87 N86 1.351 . S
C87 C88 1.434 . S
C88 C79 1.429 1_655 S
C88 N85 1.350 . S
C88 C87 1.434 . S
C89 C90 1.369 . S
C89 C91 1.419 . S
C89 H93 0.930 . S
C90 C89 1.369 . S
C90 C99 1.429 . S
C91 C89 1.419 . S
C91 C92 1.363 . S
C91 H94 0.929 . S
C92 C91 1.363 . S
C92 C98 1.428 . S
H93 C89 0.930 . S
H94 C91 0.929 . S
S95 N96 1.613 . S
S95 N97 1.610 1_565 S
N96 S95 1.613 . S
N96 C99 1.350 1_565 S
N97 S95 1.610 1_545 S
N97 C98 1.351 . S
C98 C92 1.428 . S
C98 N97 1.351 . S
C98 C99 1.434 . S
C99 C90 1.429 . S
C99 N96 1.350 1_545 S
C99 C98 1.434 . S
C100 C101 1.369 1_655 S
C100 C102 1.419 . S
C100 H104 0.930 . S
C101 C100 1.369 1_455 S
C101 C110 1.429 . S
C102 C100 1.419 . S
C102 C103 1.363 . S
C102 H105 0.929 . S
C103 C102 1.363 . S
C103 C109 1.428 1_655 S
H104 C100 0.930 . S
H105 C102 0.929 . S
S106 N107 1.613 . S
S106 N108 1.610 . S
N107 S106 1.613 . S
N107 C110 1.350 . S
N108 S106 1.610 . S
N108 C109 1.351 . S
C109 C103 1.428 1_455 S
C109 N108 1.351 . S
C109 C110 1.434 . S
C110 C101 1.429 . S
C110 N107 1.350 . S
C110 C109 1.434 . S
C111 C112 1.369 . S
C111 C113 1.419 . S
C111 H115 0.930 . S
C112 C111 1.369 . S
C112 C121 1.429 1_545 S
C113 C111 1.419 . S
C113 C114 1.363 1_545 S
C113 H116 0.929 . S
C114 C113 1.363 1_565 S
C114 C120 1.428 . S
H115 C111 0.930 . S
H116 C113 0.929 . S
S117 N118 1.613 . S
S117 N119 1.610 . S
N118 S117 1.613 . S
N118 C121 1.350 . S
N119 S117 1.610 . S
N119 C120 1.351 . S
C120 C114 1.428 . S
C120 N119 1.351 . S
C120 C121 1.434 . S
C121 C112 1.429 1_565 S
C121 N118 1.350 . S
C121 C120 1.434 . S
C122 C123 1.368 . S
C122 C124 1.419 . S
C122 H126 0.930 . S
C123 C122 1.368 . S
C123 C132 1.429 1_455 S
C124 C122 1.419 . S
C124 C125 1.363 . S
C124 H127 0.929 . S
C125 C124 1.363 . S
C125 C131 1.428 1_455 S
H126 C122 0.930 . S
H127 C124 0.929 . S
S128 N129 1.613 . S
S128 N130 1.610 . S
N129 S128 1.613 . S
N129 C132 1.350 . S
N130 S128 1.610 . S
N130 C131 1.351 . S
C131 C125 1.428 1_655 S
C131 N130 1.351 . S
C131 C132 1.434 . S
C132 C123 1.429 1_655 S
C132 N129 1.350 . S
C132 C131 1.434 . S
C133 C134 1.376 . S
C133 C135 1.419 . S
C133 H137 0.930 . S
C134 C133 1.376 . S
C134 C143 1.425 1_545 S
C135 C133 1.419 . S
C135 C136 1.363 . S
C135 H138 0.929 . S
C136 C135 1.363 . S
C136 C142 1.428 1_545 S
H137 C133 0.930 . S
H138 C135 0.929 . S
S139 N140 1.613 . S
S139 N141 1.610 . S
N140 S139 1.613 . S
N140 C143 1.350 . S
N141 S139 1.610 . S
N141 C142 1.351 . S
C142 C136 1.428 1_565 S
C142 N141 1.351 . S
C142 C143 1.434 . S
C143 C134 1.425 1_565 S
C143 N140 1.350 . S
C143 C142 1.434 . S
C144 C145 1.369 1_455 S
C144 C146 1.419 . S
C144 H148 0.930 . S
C145 C144 1.369 1_655 S
C145 C154 1.429 . S
C146 C144 1.419 . S
C146 C147 1.363 1_455 S
C146 H149 0.929 . S
C147 C146 1.363 1_655 S
C147 C153 1.428 . S
H148 C144 0.930 . S
H149 C146 0.929 . S
S150 N151 1.613 . S
S150 N152 1.610 . S
N151 S150 1.613 . S
N151 C154 1.350 . S
N152 S150 1.610 . S
N152 C153 1.351 . S
C153 C147 1.428 . S
C153 N152 1.351 . S
C153 C154 1.434 . S
C154 C145 1.429 . S
C154 N151 1.350 . S
C154 C153 1.434 . S
C155 C156 1.366 1_545 S
C155 C157 1.419 1_545 S
C155 H159 0.933 . S
C156 C155 1.366 1_565 S
C156 C165 1.429 . S
C157 C155 1.419 1_565 S
C157 C158 1.363 . S
C157 H160 0.929 1_565 S
C158 C157 1.363 . S
C158 C164 1.428 . S
H159 C155 0.933 . S
H160 C157 0.929 1_545 S
S161 N162 1.613 . S
S161 N163 1.610 . S
N162 S161 1.613 . S
N162 C165 1.350 . S
N163 S161 1.610 . S
N163 C164 1.351 . S
C164 C158 1.428 . S
C164 N163 1.351 . S
C164 C165 1.434 . S
C165 C156 1.429 . S
C165 N162 1.350 . S
C165 C164 1.434 . S
C79 C22 1.485 1_455 S
C81 C48 1.526 . S
C90 C8 1.363 . S
C92 N67 1.384 . S
C101 C31 1.393 . S
C103 N44 1.384 . S
C112 C17 1.464 1_545 S
C114 C71 1.539 . S
C123 C30 1.505 . S
C125 C39 1.579 . S
C134 C27 1.429 1_545 S
C136 N57 1.437 . S
C147 N34 1.427 . S
C145 C23 1.392 . S
C156 C24 1.530 1_565 S
C158 C62 1.571 . S
