# Generated by pormake.
# Topology nia, (6,6)-cn, num edge types: 1
# Building blocks:
#     Node 0, Type 0, BuildingBlock: FUNLAD_clean_sbu_0, # of connection points: 6
#     Node 1, Type 0, BuildingBlock: FUNLAD_clean_sbu_0, # of connection points: 6
#     Node 2, Type 1, BuildingBlock: MIDCAF_clean_sbu_0, # of connection points: 6
#     Node 3, Type 1, BuildingBlock: MIDCAF_clean_sbu_0, # of connection points: 6
#     Edge 4, Type (0, 1), BuildingBlock: EYOCIG_clean_linker_4, # of connection points: 2
#     Edge 5, Type (0, 1), BuildingBlock: EYOCIG_clean_linker_4, # of connection points: 2
#     Edge 6, Type (0, 1), BuildingBlock: EYOCIG_clean_linker_4, # of connection points: 2
#     Edge 7, Type (0, 1), BuildingBlock: EYOCIG_clean_linker_4, # of connection points: 2
#     Edge 8, Type (0, 1), BuildingBlock: EYOCIG_clean_linker_4, # of connection points: 2
#     Edge 9, Type (0, 1), BuildingBlock: EYOCIG_clean_linker_4, # of connection points: 2
#     Edge 10, Type (0, 1), BuildingBlock: EYOCIG_clean_linker_4, # of connection points: 2
#     Edge 11, Type (0, 1), BuildingBlock: EYOCIG_clean_linker_4, # of connection points: 2
#     Edge 12, Type (0, 1), BuildingBlock: EYOCIG_clean_linker_4, # of connection points: 2
#     Edge 13, Type (0, 1), BuildingBlock: EYOCIG_clean_linker_4, # of connection points: 2
#     Edge 14, Type (0, 1), BuildingBlock: EYOCIG_clean_linker_4, # of connection points: 2
#     Edge 15, Type (0, 1), BuildingBlock: EYOCIG_clean_linker_4, # of connection points: 2
# Relax obj value: 0.163
# Max RMSD: 0.249
# Mean RMSD: 0.153
data_MOF--net-nia--node1-FUNLAD_clean_sbu_0--node2-MIDCAF_clean_sbu_0--edge1-EYOCIG_clean_linker_4
_symmetry_space_group_name_H-M    P1
_symmetry_Int_Tables_number       1
_symmetry_cell_setting            triclinic
loop_
_symmetry_equiv_pos_as_xyz
'x, y, z'
_cell_length_a     19.502683
_cell_length_b     19.494987
_cell_length_c     29.064762
_cell_angle_alpha  98.734204
_cell_angle_beta   98.760146
_cell_angle_gamma 116.22381
loop_
_atom_site_label
_atom_site_type_symbol
_atom_site_fract_x
_atom_site_fract_y
_atom_site_fract_z
_atom_type_partial_charge
C0 C 0.09437 0.95883 0.08673 0.0
N1 N 0.16753 0.06712 0.97521 0.0
C2 C 0.24492 0.10827 0.99962 0.0
C3 C 0.30363 0.13768 0.97469 0.0
C4 C 0.28155 0.12479 0.92465 0.0
C5 C 0.20208 0.081 0.90041 0.0
C6 C 0.14574 0.05202 0.92645 0.0
Zn7 Zn 0.07711 0.03225 1.00865 0.0
C8 C 0.95306 0.86478 0.95947 0.0
N9 N 0.8779 0.96039 0.07015 0.0
C10 C 0.8997 0.97541 0.11892 0.0
C11 C 0.80081 0.92958 0.04641 0.0
C12 C 0.74238 0.91226 0.0721 0.0
C13 C 0.76417 0.92644 0.12225 0.0
C14 C 0.84345 0.95822 0.14571 0.0
Zn15 Zn 0.9683 -0.00812 0.03626 0.0
O16 O 0.13387 -0.0078 0.05825 0.0
C17 C 0.09424 0.15931 0.08568 0.0
O18 O 0.02594 0.95136 0.0845 0.0
H19 H 0.78468 0.91871 1.00771 0.0
H20 H 0.26094 0.11968 0.03836 0.0
H21 H 0.96117 0.00154 0.13742 0.0
O22 O 0.13194 0.1452 0.05693 0.0
O23 O 0.02548 0.10667 0.08454 0.0
H24 H 0.08415 0.01871 0.90759 0.0
O25 O 0.91144 0.03142 0.9868 0.0
O26 O 0.01831 0.07179 0.95969 0.0
O27 O 0.91369 0.87806 0.98747 0.0
O28 O 0.02153 0.91829 0.96096 0.0
C29 C 0.94959 0.06351 0.95755 0.0
H30 H 0.36511 0.171 0.99422 0.0
H31 H 0.18358 0.06993 0.86173 0.0
H32 H 0.68113 0.88756 0.05308 0.0
H33 H 0.86183 0.96958 0.18442 0.0
C34 C 0.07707 0.94142 0.45814 0.0
N35 N 0.96704 0.86703 0.56876 0.0
C36 C 0.92659 0.78972 0.54412 0.0
C37 C 0.8972 0.73057 0.56877 0.0
C38 C 0.9094 0.75212 0.61878 0.0
C39 C 0.95239 0.83154 0.64326 0.0
C40 C -0.01862 0.88834 0.61749 0.0
Zn41 Zn 0.00233 0.95791 0.53563 0.0
C42 C 0.16952 0.0821 0.58557 0.0
N43 N 0.07517 0.15779 0.47464 0.0
C44 C 0.06055 0.13611 0.42588 0.0
C45 C 0.10562 0.23484 0.49839 0.0
C46 C 0.12301 0.29335 0.47273 0.0
C47 C 0.10922 0.27168 0.4226 0.0
C48 C 0.0778 0.19243 0.39913 0.0
Zn49 Zn 0.04335 0.06713 0.50836 0.0
O50 O 0.04315 0.90163 0.48635 0.0
C51 C 0.8763 0.94135 0.4581 0.0
O52 O 0.08459 0.0099 0.4604 0.0
H53 H 0.11613 0.25086 0.53707 0.0
H54 H 0.9158 0.77409 0.5054 0.0
H55 H 0.03466 0.07467 0.40736 0.0
O56 O 0.88981 0.90326 0.4868 0.0
O57 O 0.92916 0.01022 0.45963 0.0
H58 H 0.01419 0.94987 0.63655 0.0
O59 O 0.0031 0.12352 0.55757 0.0
O60 O 0.96208 0.01621 0.5843 0.0
O61 O 0.15663 0.12164 0.55754 0.0
O62 O 0.11591 0.01351 0.58383 0.0
C63 C 0.9705 0.08503 0.58655 0.0
H64 H 0.86449 0.66916 0.54906 0.0
H65 H 0.9629 0.84964 0.68192 0.0
H66 H 0.14743 0.35457 0.49176 0.0
H67 H 0.06674 0.17415 0.36044 0.0
Zn68 Zn 0.29813 0.67792 0.17924 0.0
Zn69 Zn 0.35834 0.73691 0.36524 0.0
Zn70 Zn 0.32753 0.70794 0.27224 0.0
C71 C 0.50326 0.78732 0.34567 0.0
C72 C 0.2579 0.57479 0.32967 0.0
O73 O 0.26105 0.76875 0.24744 0.0
O74 O 0.22655 0.72373 0.16833 0.0
C75 C 0.46027 0.77786 0.21456 0.0
O76 O 0.45853 0.76786 0.30322 0.0
O77 O 0.474 0.77825 0.38146 0.0
O78 O 0.29026 0.62743 0.36855 0.0
O79 O 0.26808 0.59231 0.28941 0.0
O80 O 0.40749 0.746 0.17574 0.0
O81 O 0.4429 0.76729 0.25481 0.0
O82 O 0.26732 0.57699 0.24095 0.0
O83 O 0.25658 0.56213 0.16271 0.0
C84 C 0.24761 0.53252 0.19838 0.0
O85 O 0.26723 0.77455 0.29764 0.0
O86 O 0.31281 0.80863 0.3767 0.0
C87 C 0.2262 0.76638 0.2054 0.0
C88 C 0.26997 0.80924 0.33981 0.0
Zn89 Zn 0.74954 0.34902 0.86558 0.0
Zn90 Zn 0.68458 0.28422 0.6789 0.0
Zn91 Zn 0.71715 0.31729 0.77222 0.0
C92 C 0.76163 0.44857 0.71245 0.0
C93 C 0.54028 0.21861 0.69813 0.0
O94 O 0.78075 0.25263 0.79624 0.0
O95 O 0.7966 0.27958 0.87515 0.0
C96 C 0.81611 0.49375 0.84645 0.0
O97 O 0.76731 0.4316 0.75346 0.0
O98 O 0.72543 0.39497 0.67411 0.0
O99 O 0.5688 0.21794 0.6621 0.0
O100 O 0.58605 0.25271 0.74082 0.0
O101 O 0.81619 0.46481 0.88235 0.0
O102 O 0.78219 0.44836 0.80366 0.0
O103 O 0.60283 0.26765 0.79094 0.0
O104 O 0.63885 0.30863 0.87033 0.0
C105 C 0.5855 0.27304 0.83185 0.0
O106 O 0.78139 0.25332 0.74809 0.0
O107 O 0.75359 0.23677 0.66913 0.0
C108 C 0.80345 0.24343 0.83784 0.0
C109 C 0.79011 0.23022 0.70642 0.0
C110 C 0.14609 0.8982 0.15021 0.0
C111 C 0.1247 0.92668 0.12077 0.0
C112 C 0.17062 0.85854 0.18027 0.0
C113 C 0.19677 0.82061 0.19833 0.0
C114 C 0.30914 0.13575 0.64515 0.0
C115 C 0.24586 0.11238 0.61771 0.0
C116 C 0.38665 0.16268 0.67269 0.0
C117 C 0.45647 0.18934 0.68955 0.0
C118 C 0.15615 0.29972 0.14604 0.0
C119 C 0.12799 0.23567 0.11847 0.0
C120 C 0.18803 0.37825 0.17348 0.0
C121 C 0.21538 0.4483 0.18997 0.0
C122 C 0.91791 0.14416 0.65208 0.0
C123 C 0.94233 0.11826 0.62191 0.0
C124 C 0.88183 0.17324 0.68267 0.0
C125 C 0.84368 0.19943 0.70047 0.0
C126 C 0.6585 0.88868 0.17401 0.0
C127 C 0.70589 0.90555 0.14989 0.0
C128 C 0.59862 0.85936 0.19861 0.0
C129 C 0.53979 0.82498 0.21195 0.0
C130 C 0.85325 0.64674 0.66913 0.0
C131 C 0.87833 0.69383 0.64553 0.0
C132 C 0.82486 0.58737 0.6941 0.0
C133 C 0.79939 0.52834 0.70839 0.0
C134 C 0.13851 0.8899 0.39516 0.0
C135 C 0.10968 0.91128 0.42435 0.0
C136 C 0.17827 0.86523 0.36529 0.0
C137 C 0.21605 0.83891 0.34721 0.0
C138 C 0.38647 0.1814 0.87411 0.0
C139 C 0.33939 0.15601 0.89767 0.0
C140 C 0.44619 0.21009 0.84946 0.0
C141 C 0.50557 0.23556 0.83555 0.0
C142 C 0.14687 0.37715 0.37067 0.0
C143 C 0.13011 0.32999 0.39496 0.0
C144 C 0.17609 0.43666 0.34578 0.0
C145 C 0.21048 0.4953 0.33225 0.0
C146 C 0.88999 0.1157 0.89194 0.0
C147 C 0.91616 0.09149 0.92214 0.0
C148 C 0.86066 0.15173 0.86141 0.0
C149 C 0.83439 0.18992 0.84371 0.0
C150 C 0.73615 0.8792 0.39747 0.0
C151 C 0.80026 0.90794 0.42505 0.0
C152 C 0.65745 0.84671 0.3702 0.0
C153 C 0.5874 0.81944 0.35384 0.0
C154 C 0.89944 0.7249 0.90015 0.0
C155 C 0.92265 0.78824 0.9275 0.0
C156 C 0.87256 0.64746 0.87246 0.0
C157 C 0.84574 0.57768 0.85533 0.0
loop_
_geom_bond_atom_site_label_1
_geom_bond_atom_site_label_2
_geom_bond_distance
_geom_bond_site_symmetry_2
_ccdc_geom_bond_type
C0 O16 1.251 1_565 S
C0 O18 1.254 . S
N1 C2 1.333 . S
N1 C6 1.307 . S
N1 Zn7 2.020 . S
C2 N1 1.333 . S
C2 C3 1.379 . S
C2 H20 0.952 1_556 S
C3 C2 1.379 . S
C3 C4 1.390 . S
C3 H30 0.949 . S
C4 C3 1.390 . S
C4 C5 1.357 . S
C5 C4 1.357 . S
C5 C6 1.370 . S
C5 H31 0.950 . S
C6 N1 1.307 . S
C6 C5 1.370 . S
C6 H24 0.948 . S
Zn7 N1 2.020 . S
Zn7 O16 2.039 1_556 S
Zn7 O22 2.034 1_556 S
Zn7 O26 2.025 . S
Zn7 O28 2.024 1_545 S
C8 O27 1.246 . S
C8 O28 1.249 1_655 S
N9 C10 1.307 . S
N9 C11 1.333 . S
N9 Zn15 2.020 1_565 S
C10 N9 1.307 . S
C10 C14 1.370 . S
C10 H21 0.948 . S
C11 N9 1.333 . S
C11 C12 1.379 . S
C11 H19 0.952 . S
C12 C11 1.379 . S
C12 C13 1.390 . S
C12 H32 0.949 . S
C13 C12 1.390 . S
C13 C14 1.357 . S
C14 C10 1.370 . S
C14 C13 1.357 . S
C14 H33 0.950 . S
Zn15 N9 2.020 1_545 S
Zn15 O18 2.025 1_645 S
Zn15 O23 2.024 1_655 S
Zn15 O25 2.039 1_554 S
Zn15 O27 2.034 1_544 S
O16 C0 1.251 1_545 S
O16 Zn7 2.039 1_554 S
C17 O22 1.246 . S
C17 O23 1.249 . S
O18 C0 1.254 . S
O18 Zn15 2.025 1_465 S
H19 C11 0.952 . S
H20 C2 0.952 1_554 S
H21 C10 0.948 . S
O22 Zn7 2.034 1_554 S
O22 C17 1.246 . S
O23 Zn15 2.024 1_455 S
O23 C17 1.249 . S
H24 C6 0.948 . S
O25 Zn15 2.039 1_556 S
O25 C29 1.251 . S
O26 Zn7 2.025 . S
O26 C29 1.254 1_455 S
O27 C8 1.246 . S
O27 Zn15 2.034 1_566 S
O28 Zn7 2.024 1_565 S
O28 C8 1.249 1_455 S
C29 O25 1.251 . S
C29 O26 1.254 1_655 S
H30 C3 0.949 . S
H31 C5 0.950 . S
H32 C12 0.949 . S
H33 C14 0.950 . S
C34 O50 1.251 . S
C34 O52 1.254 1_565 S
N35 C36 1.333 . S
N35 C40 1.307 . S
N35 Zn41 2.020 1_655 S
C36 N35 1.333 . S
C36 C37 1.379 . S
C36 H54 0.952 . S
C37 C36 1.379 . S
C37 C38 1.390 . S
C37 H64 0.949 . S
C38 C37 1.390 . S
C38 C39 1.357 . S
C39 C38 1.357 . S
C39 C40 1.370 . S
C39 H65 0.950 . S
C40 N35 1.307 . S
C40 C39 1.370 . S
C40 H58 0.948 . S
Zn41 N35 2.020 1_455 S
Zn41 O50 2.039 . S
Zn41 O56 2.034 1_455 S
Zn41 O60 2.025 1_465 S
Zn41 O62 2.024 1_565 S
C42 O61 1.246 . S
C42 O62 1.249 . S
N43 C44 1.307 . S
N43 C45 1.333 . S
N43 Zn49 2.020 . S
C44 N43 1.307 . S
C44 C48 1.370 . S
C44 H55 0.948 . S
C45 N43 1.333 . S
C45 C46 1.379 . S
C45 H53 0.952 . S
C46 C45 1.379 . S
C46 C47 1.390 . S
C46 H66 0.949 . S
C47 C46 1.390 . S
C47 C48 1.357 . S
C48 C44 1.370 . S
C48 C47 1.357 . S
C48 H67 0.950 . S
Zn49 N43 2.020 . S
Zn49 O52 2.025 . S
Zn49 O57 2.024 1_455 S
Zn49 O59 2.039 . S
Zn49 O61 2.034 . S
O50 C34 1.251 . S
O50 Zn41 2.039 . S
C51 O56 1.246 . S
C51 O57 1.249 1_565 S
O52 C34 1.254 1_545 S
O52 Zn49 2.025 . S
H53 C45 0.952 . S
H54 C36 0.952 . S
H55 C44 0.948 . S
O56 Zn41 2.034 1_655 S
O56 C51 1.246 . S
O57 Zn49 2.024 1_655 S
O57 C51 1.249 1_545 S
H58 C40 0.948 . S
O59 Zn49 2.039 . S
O59 C63 1.251 1_455 S
O60 Zn41 2.025 1_645 S
O60 C63 1.254 . S
O61 C42 1.246 . S
O61 Zn49 2.034 . S
O62 Zn41 2.024 1_545 S
O62 C42 1.249 . S
C63 O59 1.251 1_655 S
C63 O60 1.254 . S
H64 C37 0.949 . S
H65 C39 0.950 . S
H66 C46 0.949 . S
H67 C48 0.950 . S
Zn68 O74 1.920 . S
Zn68 O80 1.898 . S
Zn68 O83 1.905 . S
Zn69 O77 1.905 . S
Zn69 O78 1.898 . S
Zn69 O86 1.920 . S
Zn70 O73 2.080 . S
Zn70 O76 2.114 . S
Zn70 O79 2.120 . S
Zn70 O81 2.120 . S
Zn70 O82 2.114 . S
Zn70 O85 2.080 . S
C71 O76 1.166 . S
C71 O77 1.182 . S
C72 O78 1.167 . S
C72 O79 1.299 . S
O73 Zn70 2.080 . S
O73 C87 1.305 . S
O74 Zn68 1.920 . S
O74 C87 1.234 . S
C75 O80 1.167 . S
C75 O81 1.299 . S
O76 Zn70 2.114 . S
O76 C71 1.166 . S
O77 Zn69 1.905 . S
O77 C71 1.182 . S
O78 Zn69 1.898 . S
O78 C72 1.167 . S
O79 Zn70 2.120 . S
O79 C72 1.299 . S
O80 Zn68 1.898 . S
O80 C75 1.167 . S
O81 Zn70 2.120 . S
O81 C75 1.299 . S
O82 Zn70 2.114 . S
O82 C84 1.166 . S
O83 Zn68 1.905 . S
O83 C84 1.182 . S
C84 O82 1.166 . S
C84 O83 1.182 . S
O85 Zn70 2.080 . S
O85 C88 1.305 . S
O86 Zn69 1.920 . S
O86 C88 1.234 . S
C87 O73 1.305 . S
C87 O74 1.234 . S
C88 O85 1.305 . S
C88 O86 1.234 . S
Zn89 O95 1.920 . S
Zn89 O101 1.898 . S
Zn89 O104 1.905 . S
Zn90 O98 1.905 . S
Zn90 O99 1.898 . S
Zn90 O107 1.920 . S
Zn91 O94 2.080 . S
Zn91 O97 2.114 . S
Zn91 O100 2.120 . S
Zn91 O102 2.120 . S
Zn91 O103 2.114 . S
Zn91 O106 2.080 . S
C92 O97 1.166 . S
C92 O98 1.182 . S
C93 O99 1.167 . S
C93 O100 1.299 . S
O94 Zn91 2.080 . S
O94 C108 1.305 . S
O95 Zn89 1.920 . S
O95 C108 1.234 . S
C96 O101 1.167 . S
C96 O102 1.299 . S
O97 Zn91 2.114 . S
O97 C92 1.166 . S
O98 Zn90 1.905 . S
O98 C92 1.182 . S
O99 Zn90 1.898 . S
O99 C93 1.167 . S
O100 Zn91 2.120 . S
O100 C93 1.299 . S
O101 Zn89 1.898 . S
O101 C96 1.167 . S
O102 Zn91 2.120 . S
O102 C96 1.299 . S
O103 Zn91 2.114 . S
O103 C105 1.166 . S
O104 Zn89 1.905 . S
O104 C105 1.182 . S
C105 O103 1.166 . S
C105 O104 1.182 . S
O106 Zn91 2.080 . S
O106 C109 1.305 . S
O107 Zn90 1.920 . S
O107 C109 1.234 . S
C108 O94 1.305 . S
C108 O95 1.234 . S
C109 O106 1.305 . S
C109 O107 1.234 . S
C110 C111 1.170 . S
C110 C112 1.380 . S
C111 C110 1.170 . S
C112 C110 1.380 . S
C112 C113 1.170 . S
C113 C112 1.170 . S
C114 C115 1.170 . S
C114 C116 1.380 . S
C115 C114 1.170 . S
C116 C114 1.380 . S
C116 C117 1.170 . S
C117 C116 1.170 . S
C118 C119 1.170 . S
C118 C120 1.380 . S
C119 C118 1.170 . S
C120 C118 1.380 . S
C120 C121 1.170 . S
C121 C120 1.170 . S
C122 C123 1.170 . S
C122 C124 1.380 . S
C123 C122 1.170 . S
C124 C122 1.380 . S
C124 C125 1.170 . S
C125 C124 1.170 . S
C126 C127 1.170 . S
C126 C128 1.380 . S
C127 C126 1.170 . S
C128 C126 1.380 . S
C128 C129 1.170 . S
C129 C128 1.170 . S
C130 C131 1.170 . S
C130 C132 1.380 . S
C131 C130 1.170 . S
C132 C130 1.380 . S
C132 C133 1.170 . S
C133 C132 1.170 . S
C134 C135 1.170 . S
C134 C136 1.380 . S
C135 C134 1.170 . S
C136 C134 1.380 . S
C136 C137 1.170 . S
C137 C136 1.170 . S
C138 C139 1.170 . S
C138 C140 1.380 . S
C139 C138 1.170 . S
C140 C138 1.380 . S
C140 C141 1.170 . S
C141 C140 1.170 . S
C142 C143 1.170 . S
C142 C144 1.380 . S
C143 C142 1.170 . S
C144 C142 1.380 . S
C144 C145 1.170 . S
C145 C144 1.170 . S
C146 C147 1.170 . S
C146 C148 1.380 . S
C147 C146 1.170 . S
C148 C146 1.380 . S
C148 C149 1.170 . S
C149 C148 1.170 . S
C150 C151 1.170 . S
C150 C152 1.380 . S
C151 C150 1.170 . S
C152 C150 1.380 . S
C152 C153 1.170 . S
C153 C152 1.170 . S
C154 C155 1.170 . S
C154 C156 1.380 . S
C155 C154 1.170 . S
C156 C154 1.380 . S
C156 C157 1.170 . S
C157 C156 1.170 . S
C111 C0 1.732 . S
C113 C87 1.517 . S
C115 C42 1.851 . S
C117 C93 1.710 . S
C119 C17 1.677 . S
C121 C84 1.596 . S
C123 C63 1.511 . S
C125 C109 1.334 . S
C127 C13 1.239 . S
C129 C75 1.142 . S
C133 C92 1.148 . S
C131 C38 1.296 . S
C135 C34 1.742 . S
C137 C88 1.477 . S
C141 C105 1.201 . S
C139 C4 1.275 . S
C145 C72 1.107 . S
C143 C47 1.246 . S
C149 C108 1.343 . S
C147 C29 1.510 . S
C153 C71 1.594 . S
C151 C51 1.679 . S
C157 C96 1.705 . S
C155 C8 1.849 . S
