# Generated by pormake.
# Topology bcu-b, (8,8)-cn, num edge types: 1
# Building blocks:
#     Node 0, Type 0, BuildingBlock: TAGTUT_clean_sbu_3, # of connection points: 8
#     Node 1, Type 1, BuildingBlock: VETTIZ_charged_sbu_0, # of connection points: 8
#     Edge 2, Type (0, 1), BuildingBlock: AJUNOK_clean_linker_0, # of connection points: 2
#     Edge 3, Type (0, 1), BuildingBlock: AJUNOK_clean_linker_0, # of connection points: 2
#     Edge 4, Type (0, 1), BuildingBlock: AJUNOK_clean_linker_0, # of connection points: 2
#     Edge 5, Type (0, 1), BuildingBlock: AJUNOK_clean_linker_0, # of connection points: 2
#     Edge 6, Type (0, 1), BuildingBlock: AJUNOK_clean_linker_0, # of connection points: 2
#     Edge 7, Type (0, 1), BuildingBlock: AJUNOK_clean_linker_0, # of connection points: 2
#     Edge 8, Type (0, 1), BuildingBlock: AJUNOK_clean_linker_0, # of connection points: 2
#     Edge 9, Type (0, 1), BuildingBlock: AJUNOK_clean_linker_0, # of connection points: 2
# Relax obj value: 0.019
# Max RMSD: 0.096
# Mean RMSD: 0.076
data_MOF--net-bcu-b--node1-TAGTUT_clean_sbu_3--node2-VETTIZ_charged_sbu_0--edge1-AJUNOK_clean_linker_0
_symmetry_space_group_name_H-M    P1
_symmetry_Int_Tables_number       1
_symmetry_cell_setting            triclinic
loop_
_symmetry_equiv_pos_as_xyz
'x, y, z'
_cell_length_a     15.983476
_cell_length_b     14.451486
_cell_length_c     15.57894
_cell_angle_alpha  89.307663
_cell_angle_beta   90.077839
_cell_angle_gamma 101.28931
loop_
_atom_site_label
_atom_site_type_symbol
_atom_site_fract_x
_atom_site_fract_y
_atom_site_fract_z
_atom_type_partial_charge
C0 C 0.12604 0.192 0.10459 0.0
C1 C 0.2288 0.8584 0.09828 0.0
C2 C 0.12644 0.84699 0.84415 0.0
Mg3 Mg 0.95748 0.24599 0.00701 0.0
Mg4 Mg 0.79461 0.07017 0.00336 0.0
O5 O 0.90551 0.11852 0.96226 0.0
Mg6 Mg -0.01092 0.04168 0.00155 0.0
O7 O 0.07523 0.96832 0.04035 0.0
Mg8 Mg 0.17838 0.03545 0.97663 0.0
Mg9 Mg 0.04529 0.8369 0.0207 0.0
C10 C 0.84276 0.89291 0.90818 0.0
O11 O 0.89964 0.95802 0.10551 0.0
O12 O 0.84963 0.29421 0.92105 0.0
O13 O 0.92288 0.80995 0.08902 0.0
O14 O 0.87312 0.2412 0.12199 0.0
O15 O 0.74158 0.16778 0.92707 0.0
O16 O 0.77902 0.10818 0.13777 0.0
O17 O 0.08674 0.11534 0.90176 0.0
O18 O 0.05165 0.2575 0.898 0.0
C19 C 0.09994 0.20147 0.8753 0.0
C20 C 0.77348 0.25132 0.90001 0.0
O21 O 0.9229 0.92755 0.9124 0.0
O22 O 0.25234 0.94149 0.06416 0.0
O23 O 0.78642 0.92883 0.94845 0.0
O24 O 0.16846 0.92515 0.87174 0.0
O25 O 0.15344 0.8096 0.08871 0.0
O26 O 0.06483 0.79954 0.88788 0.0
O27 O 0.04717 0.16493 0.08615 0.0
O28 O 0.18312 0.14877 0.07661 0.0
C29 C 0.81529 0.18912 0.16561 0.0
C30 C 0.88207 0.86878 0.12298 0.0
Fe31 Fe 0.51869 0.758 0.53361 0.0
O32 O 0.4916 0.61994 0.54725 0.0
Fe33 Fe 0.58533 0.54435 0.50688 0.0
Fe34 Fe 0.38868 0.53792 0.49721 0.0
O35 O 0.5006 0.6207 0.54559 0.0
O36 O 0.48235 0.46303 0.45532 0.0
O37 O 0.47302 0.46228 0.45663 0.0
Fe38 Fe 0.45507 0.32479 0.47331 0.0
C39 C 0.33358 0.70057 0.59825 0.0
O40 O 0.4387 0.76285 0.43027 0.0
O41 O 0.4031 0.61508 0.38367 0.0
O42 O 0.55648 0.33351 0.39431 0.0
O43 O 0.65913 0.44808 0.45618 0.0
O44 O 0.60999 0.62279 0.39455 0.0
O45 O 0.61971 0.76589 0.44964 0.0
O46 O 0.29253 0.44241 0.43477 0.0
O47 O 0.36454 0.33101 0.38177 0.0
C48 C 0.63774 0.7118 0.39143 0.0
O49 O 0.54118 0.32319 0.57376 0.0
O50 O 0.56811 0.47063 0.62014 0.0
O51 O 0.41079 0.74789 0.60928 0.0
O52 O 0.3129 0.62766 0.54871 0.0
C53 C 0.40865 0.7037 0.37274 0.0
C54 C 0.30168 0.37587 0.38204 0.0
C55 C 0.34402 0.37169 0.61776 0.0
O56 O 0.36821 0.46088 0.61108 0.0
O57 O 0.35816 0.31712 0.55903 0.0
C58 C 0.63483 0.37344 0.40815 0.0
O59 O 0.67985 0.63929 0.57352 0.0
O60 O 0.60499 0.74745 0.62868 0.0
C61 C 0.57239 0.3846 0.62923 0.0
C62 C 0.6677 0.70221 0.62932 0.0
C63 C 0.23699 0.3194 0.15727 0.0
C64 C 0.1541 0.26637 0.16714 0.0
C65 C 0.28167 0.36219 0.2274 0.0
C66 C 0.244 0.35614 0.30902 0.0
H67 H 0.27055 0.32012 0.09674 0.0
H68 H 0.34817 0.39531 0.21883 0.0
S69 S 0.02258 0.2422 0.36488 0.0
N70 N 0.03124 0.22122 0.2615 0.0
N71 N 0.11557 0.30586 0.39412 0.0
C72 C 0.15771 0.31374 0.31794 0.0
C73 C 0.11219 0.26825 0.24623 0.0
C74 C 0.71195 0.18211 0.28705 0.0
C75 C 0.78389 0.23105 0.24332 0.0
C76 C 0.67008 0.22749 0.34747 0.0
C77 C 0.69664 0.32467 0.36522 0.0
H78 H 0.68464 0.1097 0.2712 0.0
H79 H 0.61249 0.1871 0.37634 0.0
S80 S 0.89182 0.48031 0.28193 0.0
N81 N 0.88951 0.37854 0.23396 0.0
N82 N 0.80674 0.46423 0.34446 0.0
C83 C 0.77315 0.37217 0.3288 0.0
C84 C 0.81745 0.32537 0.26828 0.0
C85 C 0.76954 0.73889 0.18477 0.0
C86 C 0.81599 0.83229 0.18861 0.0
C87 C 0.71126 0.70079 0.24962 0.0
C88 C 0.69747 0.75433 0.3214 0.0
H89 H 0.77858 0.69456 0.13134 0.0
H90 H 0.67739 0.62853 0.24364 0.0
S91 S 0.80942 1.00031 0.36543 0.0
N92 N 0.84761 0.97576 0.27193 0.0
N93 N 0.73916 0.90531 0.39359 0.0
C94 C 0.74417 0.84799 0.32596 0.0
C95 C 0.80299 0.88665 0.25972 0.0
C96 C 0.35011 0.87492 0.20454 0.0
C97 C 0.28639 0.8172 0.15636 0.0
C98 C 0.3922 0.83695 0.27193 0.0
C99 C 0.37245 0.7398 0.29355 0.0
H100 H 0.36434 0.95049 0.19334 0.0
H101 H 0.43852 0.88483 0.30927 0.0
S102 S 0.21545 0.55785 0.18123 0.0
N103 N 0.21126 0.6569 0.12968 0.0
N104 N 0.28785 0.58657 0.25693 0.0
C105 C 0.31232 0.68088 0.24238 0.0
C106 C 0.27006 0.71931 0.17376 0.0
C107 C 0.22413 0.86828 0.71828 0.0
C108 C 0.16039 0.80822 0.76613 0.0
C109 C 0.27598 0.83256 0.66036 0.0
C110 C 0.26567 0.73523 0.64598 0.0
H111 H 0.23816 0.94361 0.72946 0.0
H112 H 0.32725 0.88167 0.62928 0.0
S113 S 0.09506 0.54928 0.73825 0.0
N114 N 0.08058 0.64744 0.78423 0.0
N115 N 0.17741 0.58034 0.67284 0.0
C116 C 0.19606 0.67497 0.68548 0.0
C117 C 0.14344 0.71148 0.74601 0.0
C118 C 0.1938 0.18835 0.75036 0.0
C119 C 0.17246 0.24082 0.81895 0.0
C120 C 0.25149 0.23109 0.68737 0.0
C121 C 0.29039 0.32785 0.69088 0.0
H122 H 0.16246 0.11531 0.74279 0.0
H123 H 0.2631 0.18813 0.63386 0.0
S124 S 0.26832 0.48992 0.86855 0.0
N125 N 0.20299 0.39021 0.89442 0.0
N126 N 0.31204 0.4704 0.7762 0.0
C127 C 0.27416 0.37899 0.76295 0.0
C128 C 0.21509 0.33547 0.82693 0.0
C129 C 0.64066 0.24035 0.81161 0.0
C130 C 0.72089 0.29346 0.83669 0.0
C131 C 0.59265 0.27084 0.74554 0.0
C132 C 0.62154 0.35679 0.70263 0.0
H133 H 0.61504 0.17274 0.84156 0.0
H134 H 0.53258 0.22642 0.72759 0.0
S135 S 0.82566 0.52397 0.74238 0.0
N136 N 0.82604 0.43751 0.81252 0.0
N137 N 0.73495 0.49553 0.68923 0.0
C138 C 0.70014 0.4123 0.7281 0.0
C139 C 0.74989 0.38059 0.79486 0.0
C140 C 0.72952 0.76408 0.85473 0.0
C141 C 0.81186 0.81877 0.84478 0.0
C142 C 0.68661 0.71656 0.78521 0.0
C143 C 0.72455 0.72198 0.70353 0.0
H144 H 0.69532 0.76418 0.91474 0.0
H145 H 0.62054 0.68186 0.79368 0.0
S146 S 0.94526 0.83786 0.6477 0.0
N147 N 0.93527 0.86194 0.75016 0.0
N148 N 0.85303 0.7723 0.61911 0.0
C149 C 0.81017 0.76629 0.69484 0.0
C150 C 0.85445 0.81475 0.76593 0.0
loop_
_geom_bond_atom_site_label_1
_geom_bond_atom_site_label_2
_geom_bond_distance
_geom_bond_site_symmetry_2
_ccdc_geom_bond_type
C0 O27 1.312 . S
C0 O28 1.208 . S
C1 O22 1.331 . S
C1 O25 1.244 . S
C2 O24 1.264 . S
C2 O26 1.273 . S
Mg3 O5 1.936 . S
Mg3 O12 2.081 . S
Mg3 O14 2.023 1_556 S
Mg3 O18 2.031 1_655 S
Mg3 O27 2.291 1_656 S
Mg4 O5 1.963 . S
Mg4 O15 1.942 . S
Mg4 O16 1.955 1_556 S
Mg4 O23 1.986 1_545 S
O5 Mg3 1.936 . S
O5 Mg4 1.963 . S
O5 Mg6 1.916 1_656 S
Mg6 O5 1.916 1_454 S
Mg6 O7 1.916 1_545 S
Mg6 O11 2.005 1_445 S
Mg6 O17 2.123 1_554 S
Mg6 O21 2.005 1_444 S
Mg6 O27 2.123 . S
O7 Mg6 1.916 1_565 S
O7 Mg8 1.936 . S
O7 Mg9 1.963 . S
Mg8 O7 1.936 . S
Mg8 O17 2.291 1_564 S
Mg8 O22 2.081 . S
Mg8 O24 2.023 1_554 S
Mg8 O28 2.031 1_565 S
Mg9 O7 1.963 . S
Mg9 O13 1.986 1_455 S
Mg9 O25 1.942 . S
Mg9 O26 1.955 1_554 S
C10 O21 1.191 . S
C10 O23 1.307 . S
O11 Mg6 2.005 1_665 S
O11 C30 1.191 . S
O12 Mg3 2.081 . S
O12 C20 1.331 . S
O13 Mg9 1.986 1_655 S
O13 C30 1.307 . S
O14 Mg3 2.023 1_554 S
O14 C29 1.264 . S
O15 Mg4 1.942 . S
O15 C20 1.244 . S
O16 Mg4 1.955 1_554 S
O16 C29 1.273 . S
O17 Mg6 2.123 1_556 S
O17 Mg8 2.291 1_546 S
O17 C19 1.312 . S
O18 Mg3 2.031 1_455 S
O18 C19 1.208 . S
C19 O17 1.312 . S
C19 O18 1.208 . S
C20 O12 1.331 . S
C20 O15 1.244 . S
O21 Mg6 2.005 1_666 S
O21 C10 1.191 . S
O22 C1 1.331 . S
O22 Mg8 2.081 . S
O23 Mg4 1.986 1_565 S
O23 C10 1.307 . S
O24 C2 1.264 . S
O24 Mg8 2.023 1_556 S
O25 C1 1.244 . S
O25 Mg9 1.942 . S
O26 C2 1.273 . S
O26 Mg9 1.955 1_556 S
O27 C0 1.312 . S
O27 Mg3 2.291 1_454 S
O27 Mg6 2.123 . S
O28 C0 1.208 . S
O28 Mg8 2.031 1_545 S
C29 O14 1.264 . S
C29 O16 1.273 . S
C30 O11 1.191 . S
C30 O13 1.307 . S
Fe31 O32 1.886 . S
Fe31 O35 1.715 . S
Fe31 O40 2.077 . S
Fe31 O45 1.935 . S
Fe31 O51 2.077 . S
Fe31 O60 1.935 . S
O32 Fe31 1.886 . S
O32 Fe34 1.715 . S
Fe33 O35 1.886 . S
Fe33 O36 1.715 . S
Fe33 O43 1.935 . S
Fe33 O44 2.077 . S
Fe33 O50 1.935 . S
Fe33 O59 2.077 . S
Fe34 O32 1.715 . S
Fe34 O37 1.886 . S
Fe34 O41 1.935 . S
Fe34 O46 2.077 . S
Fe34 O52 1.935 . S
Fe34 O56 2.077 . S
O35 Fe31 1.715 . S
O35 Fe33 1.886 . S
O36 Fe33 1.715 . S
O36 Fe38 1.886 . S
O37 Fe34 1.886 . S
O37 Fe38 1.715 . S
Fe38 O36 1.886 . S
Fe38 O37 1.715 . S
Fe38 O42 2.077 . S
Fe38 O47 1.935 . S
Fe38 O49 2.077 . S
Fe38 O57 1.935 . S
C39 O51 1.381 . S
C39 O52 1.421 . S
O40 Fe31 2.077 . S
O40 C53 1.381 . S
O41 Fe34 1.935 . S
O41 C53 1.421 . S
O42 Fe38 2.077 . S
O42 C58 1.381 . S
O43 Fe33 1.935 . S
O43 C58 1.421 . S
O44 Fe33 2.077 . S
O44 C48 1.381 . S
O45 Fe31 1.935 . S
O45 C48 1.421 . S
O46 Fe34 2.077 . S
O46 C54 1.381 . S
O47 Fe38 1.935 . S
O47 C54 1.421 . S
C48 O44 1.381 . S
C48 O45 1.421 . S
O49 Fe38 2.077 . S
O49 C61 1.381 . S
O50 Fe33 1.935 . S
O50 C61 1.421 . S
O51 Fe31 2.077 . S
O51 C39 1.381 . S
O52 Fe34 1.935 . S
O52 C39 1.421 . S
C53 O40 1.381 . S
C53 O41 1.421 . S
C54 O46 1.381 . S
C54 O47 1.421 . S
C55 O56 1.381 . S
C55 O57 1.421 . S
O56 Fe34 2.077 . S
O56 C55 1.381 . S
O57 Fe38 1.935 . S
O57 C55 1.421 . S
C58 O42 1.381 . S
C58 O43 1.421 . S
O59 Fe33 2.077 . S
O59 C62 1.381 . S
O60 Fe31 1.935 . S
O60 C62 1.421 . S
C61 O49 1.381 . S
C61 O50 1.421 . S
C62 O59 1.381 . S
C62 O60 1.421 . S
C63 C64 1.369 . S
C63 C65 1.419 . S
C63 H67 0.930 . S
C64 C63 1.369 . S
C64 C73 1.429 . S
C65 C63 1.419 . S
C65 C66 1.363 . S
C65 H68 0.929 . S
C66 C65 1.363 . S
C66 C72 1.428 . S
H67 C63 0.930 . S
H68 C65 0.929 . S
S69 N70 1.613 . S
S69 N71 1.610 . S
N70 S69 1.613 . S
N70 C73 1.350 . S
N71 S69 1.610 . S
N71 C72 1.351 . S
C72 C66 1.428 . S
C72 N71 1.351 . S
C72 C73 1.434 . S
C73 C64 1.429 . S
C73 N70 1.350 . S
C73 C72 1.434 . S
C74 C75 1.369 . S
C74 C76 1.419 . S
C74 H78 0.930 . S
C75 C74 1.369 . S
C75 C84 1.429 . S
C76 C74 1.419 . S
C76 C77 1.363 . S
C76 H79 0.929 . S
C77 C76 1.363 . S
C77 C83 1.428 . S
H78 C74 0.930 . S
H79 C76 0.929 . S
S80 N81 1.613 . S
S80 N82 1.610 . S
N81 S80 1.613 . S
N81 C84 1.350 . S
N82 S80 1.610 . S
N82 C83 1.351 . S
C83 C77 1.428 . S
C83 N82 1.351 . S
C83 C84 1.434 . S
C84 C75 1.429 . S
C84 N81 1.350 . S
C84 C83 1.434 . S
C85 C86 1.369 . S
C85 C87 1.419 . S
C85 H89 0.930 . S
C86 C85 1.369 . S
C86 C95 1.429 . S
C87 C85 1.419 . S
C87 C88 1.363 . S
C87 H90 0.929 . S
C88 C87 1.363 . S
C88 C94 1.428 . S
H89 C85 0.930 . S
H90 C87 0.929 . S
S91 N92 1.613 . S
S91 N93 1.610 . S
N92 S91 1.613 . S
N92 C95 1.350 . S
N93 S91 1.610 . S
N93 C94 1.351 . S
C94 C88 1.428 . S
C94 N93 1.351 . S
C94 C95 1.434 . S
C95 C86 1.429 . S
C95 N92 1.350 . S
C95 C94 1.434 . S
C96 C97 1.369 . S
C96 C98 1.419 . S
C96 H100 0.930 . S
C97 C96 1.369 . S
C97 C106 1.429 . S
C98 C96 1.419 . S
C98 C99 1.363 . S
C98 H101 0.929 . S
C99 C98 1.363 . S
C99 C105 1.428 . S
H100 C96 0.930 . S
H101 C98 0.929 . S
S102 N103 1.613 . S
S102 N104 1.610 . S
N103 S102 1.613 . S
N103 C106 1.350 . S
N104 S102 1.610 . S
N104 C105 1.351 . S
C105 C99 1.428 . S
C105 N104 1.351 . S
C105 C106 1.434 . S
C106 C97 1.429 . S
C106 N103 1.350 . S
C106 C105 1.434 . S
C107 C108 1.369 . S
C107 C109 1.419 . S
C107 H111 0.930 . S
C108 C107 1.369 . S
C108 C117 1.429 . S
C109 C107 1.419 . S
C109 C110 1.363 . S
C109 H112 0.929 . S
C110 C109 1.363 . S
C110 C116 1.428 . S
H111 C107 0.930 . S
H112 C109 0.929 . S
S113 N114 1.613 . S
S113 N115 1.610 . S
N114 S113 1.613 . S
N114 C117 1.350 . S
N115 S113 1.610 . S
N115 C116 1.351 . S
C116 C110 1.428 . S
C116 N115 1.351 . S
C116 C117 1.434 . S
C117 C108 1.429 . S
C117 N114 1.350 . S
C117 C116 1.434 . S
C118 C119 1.369 . S
C118 C120 1.419 . S
C118 H122 0.930 . S
C119 C118 1.369 . S
C119 C128 1.429 . S
C120 C118 1.419 . S
C120 C121 1.363 . S
C120 H123 0.929 . S
C121 C120 1.363 . S
C121 C127 1.428 . S
H122 C118 0.930 . S
H123 C120 0.929 . S
S124 N125 1.613 . S
S124 N126 1.610 . S
N125 S124 1.613 . S
N125 C128 1.350 . S
N126 S124 1.610 . S
N126 C127 1.351 . S
C127 C121 1.428 . S
C127 N126 1.351 . S
C127 C128 1.434 . S
C128 C119 1.429 . S
C128 N125 1.350 . S
C128 C127 1.434 . S
C129 C130 1.369 . S
C129 C131 1.419 . S
C129 H133 0.930 . S
C130 C129 1.369 . S
C130 C139 1.429 . S
C131 C129 1.419 . S
C131 C132 1.363 . S
C131 H134 0.929 . S
C132 C131 1.363 . S
C132 C138 1.428 . S
H133 C129 0.930 . S
H134 C131 0.929 . S
S135 N136 1.613 . S
S135 N137 1.610 . S
N136 S135 1.613 . S
N136 C139 1.350 . S
N137 S135 1.610 . S
N137 C138 1.351 . S
C138 C132 1.428 . S
C138 N137 1.351 . S
C138 C139 1.434 . S
C139 C130 1.429 . S
C139 N136 1.350 . S
C139 C138 1.434 . S
C140 C141 1.369 . S
C140 C142 1.419 . S
C140 H144 0.930 . S
C141 C140 1.369 . S
C141 C150 1.429 . S
C142 C140 1.419 . S
C142 C143 1.363 . S
C142 H145 0.929 . S
C143 C142 1.363 . S
C143 C149 1.428 . S
H144 C140 0.930 . S
H145 C142 0.929 . S
S146 N147 1.613 . S
S146 N148 1.610 . S
N147 S146 1.613 . S
N147 C150 1.350 . S
N148 S146 1.610 . S
N148 C149 1.351 . S
C149 C143 1.428 . S
C149 N148 1.351 . S
C149 C150 1.434 . S
C150 C141 1.429 . S
C150 N147 1.350 . S
C150 C149 1.434 . S
C64 C0 1.413 . S
C66 C54 1.437 . S
C75 C29 1.551 . S
C77 C58 1.533 . S
C86 C30 1.391 . S
C88 C48 1.386 . S
C97 C1 1.488 . S
C99 C53 1.476 . S
C108 C2 1.552 . S
C110 C39 1.530 . S
C121 C55 1.440 . S
C119 C19 1.405 . S
C130 C20 1.488 . S
C132 C61 1.472 . S
C143 C62 1.391 . S
C141 C10 1.384 . S
