# Generated by pormake.
# Topology pts, (4,4)-cn, num edge types: 1
# Building blocks:
#     Node 0, Type 0, BuildingBlock: MUDLON_clean_sbu_0, # of connection points: 4
#     Node 1, Type 0, BuildingBlock: MUDLON_clean_sbu_0, # of connection points: 4
#     Node 2, Type 1, BuildingBlock: AZAVOO_clean_sbu_0, # of connection points: 4
#     Node 3, Type 1, BuildingBlock: AZAVOO_clean_sbu_0, # of connection points: 4
#     Edge 4, Type (0, 1), BuildingBlock: EYOCIG_clean_linker_4, # of connection points: 2
#     Edge 5, Type (0, 1), BuildingBlock: EYOCIG_clean_linker_4, # of connection points: 2
#     Edge 6, Type (0, 1), BuildingBlock: EYOCIG_clean_linker_4, # of connection points: 2
#     Edge 7, Type (0, 1), BuildingBlock: EYOCIG_clean_linker_4, # of connection points: 2
#     Edge 8, Type (0, 1), BuildingBlock: EYOCIG_clean_linker_4, # of connection points: 2
#     Edge 9, Type (0, 1), BuildingBlock: EYOCIG_clean_linker_4, # of connection points: 2
#     Edge 10, Type (0, 1), BuildingBlock: EYOCIG_clean_linker_4, # of connection points: 2
#     Edge 11, Type (0, 1), BuildingBlock: EYOCIG_clean_linker_4, # of connection points: 2
# Relax obj value: 0.032
# Max RMSD: 0.087
# Mean RMSD: 0.073
data_MOF--net-pts--node1-MUDLON_clean_sbu_0--node2-AZAVOO_clean_sbu_0--edge1-EYOCIG_clean_linker_4
_symmetry_space_group_name_H-M    P1
_symmetry_Int_Tables_number       1
_symmetry_cell_setting            triclinic
loop_
_symmetry_equiv_pos_as_xyz
'x, y, z'
_cell_length_a     19.211755
_cell_length_b     19.418407
_cell_length_c     30.836545
_cell_angle_alpha  89.668586
_cell_angle_beta   98.334384
_cell_angle_gamma 89.757044
loop_
_atom_site_label
_atom_site_type_symbol
_atom_site_fract_x
_atom_site_fract_y
_atom_site_fract_z
_atom_type_partial_charge
Mg0 Mg 0.54656 -0.00456 0.0292 0.0
C1 C 0.42256 0.97055 0.96137 0.0
O2 O 0.44319 0.90698 0.97056 0.0
C3 C 0.67793 0.97198 0.09172 0.0
O4 O 0.66656 0.9094 0.07663 0.0
C5 C 0.44242 -0.01497 0.0897 0.0
O6 O 0.44459 0.92183 0.07508 0.0
O7 O 0.48113 0.03089 0.07614 0.0
O8 O 0.45684 0.02013 0.98049 0.0
O9 O 0.61237 0.03242 0.98279 0.0
C10 C 0.64493 -0.01441 0.96519 0.0
O11 O 0.63565 0.92078 0.9751 0.0
O12 O 0.63525 0.02007 0.07824 0.0
Mg13 Mg 0.03601 0.51052 0.52777 0.0
C14 C 0.07138 0.61321 0.60175 0.0
O15 O 0.13492 0.58783 0.60265 0.0
C16 C 0.08257 0.40271 0.46675 0.0
O17 O 0.14492 0.41617 0.48832 0.0
C18 C 0.05205 0.61618 0.46362 0.0
O19 O 0.11643 0.60217 0.48228 0.0
O20 O 0.00071 0.58449 0.47627 0.0
O21 O 0.02127 0.5911 0.57414 0.0
O22 O -0.00545 0.43659 0.57035 0.0
C23 C 0.04259 0.4085 0.59755 0.0
O24 O 0.10845 0.42584 0.59715 0.0
O25 O 0.02877 0.43356 0.47652 0.0
Mg26 Mg 0.11422 -0.00949 0.29736 0.0
O27 O 0.01033 -0.00796 0.25013 0.0
O28 O 0.92319 -0.01357 0.29101 0.0
Mg29 Mg 0.9705 0.97679 0.3633 0.0
C30 C 0.9452 -0.00899 0.25405 0.0
C31 C 0.23622 -5e-05 0.24441 0.0
O32 O 0.26328 0.9638 0.27889 0.0
O33 O 0.09607 0.10177 0.3175 0.0
O34 O 0.01461 0.08643 0.36196 0.0
O35 O 0.11778 0.87497 0.2968 0.0
O36 O 0.06839 0.93632 0.34437 0.0
C37 C 0.05679 0.12458 0.34434 0.0
C38 C 0.08329 0.87709 0.32981 0.0
O39 O 0.17354 0.02235 0.24161 0.0
Mg40 Mg 0.97855 -0.00962 0.76155 0.0
O41 O 0.08419 -0.00962 0.80745 0.0
O42 O 0.16916 -0.01419 0.76494 0.0
Mg43 Mg 0.11875 0.97751 0.69314 0.0
C44 C 0.14891 -0.01055 0.80243 0.0
C45 C 0.85825 0.00048 0.81485 0.0
O46 O 0.83121 0.96572 0.78014 0.0
O47 O -0.00509 0.10189 0.74102 0.0
O48 O 0.07385 0.08736 0.69483 0.0
O49 O 0.9745 0.87499 0.76202 0.0
O50 O 0.02212 0.93672 0.7136 0.0
C51 C 0.03222 0.12516 0.71319 0.0
C52 C 0.00716 0.87736 0.72821 0.0
O53 O 0.92116 0.02171 0.818 0.0
C54 C 0.35798 0.00901 0.14818 0.0
C55 C 0.39739 0.00099 0.12156 0.0
C56 C 0.31262 0.01178 0.18028 0.0
C57 C 0.27546 0.00801 0.20851 0.0
C58 C 0.02109 0.3093 0.65283 0.0
C59 C 0.02696 0.35484 0.62685 0.0
C60 C 0.02004 0.2504 0.67984 0.0
C61 C 0.02177 0.19472 0.6975 0.0
C62 C 0.78901 -0.00775 0.15118 0.0
C63 C 0.73774 -0.01481 0.12408 0.0
C64 C 0.84717 -0.00493 0.18474 0.0
C65 C 0.89396 -0.00661 0.21532 0.0
C66 C 0.04821 0.71198 0.65656 0.0
C67 C 0.0587 0.66689 0.63152 0.0
C68 C 0.03539 0.76681 0.68432 0.0
C69 C 0.02165 0.816 0.70528 0.0
C70 C 0.30903 -0.01013 0.90325 0.0
C71 C 0.36108 -0.01657 0.92996 0.0
C72 C 0.24972 -0.00751 0.87036 0.0
C73 C 0.20176 -0.00875 0.84045 0.0
C74 C 0.07017 0.30656 0.40589 0.0
C75 C 0.07478 0.35061 0.43356 0.0
C76 C 0.06705 0.24894 0.37795 0.0
C77 C 0.06606 0.19364 0.36032 0.0
C78 C 0.73308 0.01055 0.90907 0.0
C79 C 0.69227 0.0025 0.93485 0.0
C80 C 0.78008 0.01305 0.87793 0.0
C81 C 0.81826 0.00902 0.8503 0.0
C82 C 0.04192 0.71214 0.40222 0.0
C83 C 0.04137 0.66782 0.42975 0.0
C84 C 0.05172 0.76657 0.37312 0.0
C85 C 0.06711 0.81555 0.3523 0.0
loop_
_geom_bond_atom_site_label_1
_geom_bond_atom_site_label_2
_geom_bond_distance
_geom_bond_site_symmetry_2
_ccdc_geom_bond_type
Mg0 O7 2.141 . S
Mg0 O8 2.048 1_554 S
Mg0 O9 2.048 1_554 S
Mg0 O12 2.141 . S
C1 O2 1.313 1_545 S
C1 O8 1.195 . S
O2 C1 1.313 1_565 S
C3 O4 1.245 . S
C3 O12 1.289 1_565 S
O4 C3 1.245 . S
C5 O6 1.245 . S
C5 O7 1.289 1_565 S
O6 C5 1.245 . S
O7 Mg0 2.141 . S
O7 C5 1.289 1_545 S
O8 Mg0 2.048 1_556 S
O8 C1 1.195 . S
O9 Mg0 2.048 1_556 S
O9 C10 1.195 . S
C10 O9 1.195 . S
C10 O11 1.313 1_545 S
O11 C10 1.313 1_565 S
O12 Mg0 2.141 . S
O12 C3 1.289 1_545 S
Mg13 O20 2.141 . S
Mg13 O21 2.048 . S
Mg13 O22 2.048 . S
Mg13 O25 2.141 . S
C14 O15 1.313 . S
C14 O21 1.195 . S
O15 C14 1.313 . S
C16 O17 1.245 . S
C16 O25 1.289 . S
O17 C16 1.245 . S
C18 O19 1.245 . S
C18 O20 1.289 . S
O19 C18 1.245 . S
O20 Mg13 2.141 . S
O20 C18 1.289 . S
O21 Mg13 2.048 . S
O21 C14 1.195 . S
O22 Mg13 2.048 . S
O22 C23 1.195 . S
C23 O22 1.195 . S
C23 O24 1.313 . S
O24 C23 1.313 . S
O25 Mg13 2.141 . S
O25 C16 1.289 . S
Mg26 O27 2.028 . S
Mg26 O33 1.986 . S
Mg26 O35 2.114 1_545 S
Mg26 O36 2.251 1_545 S
Mg26 O39 2.010 . S
O27 Mg26 2.028 . S
O27 C30 1.250 1_455 S
O28 Mg29 2.028 . S
O28 C30 1.248 . S
Mg29 O28 2.028 . S
Mg29 O34 2.032 1_655 S
Mg29 O36 2.079 1_645 S
C30 O27 1.250 1_655 S
C30 O28 1.248 . S
C31 O32 1.264 . S
C31 O39 1.249 . S
O32 C31 1.264 . S
O33 Mg26 1.986 . S
O33 C37 1.246 . S
O34 Mg29 2.032 1_455 S
O34 C37 1.259 . S
O35 Mg26 2.114 1_565 S
O35 C38 1.252 . S
O36 Mg26 2.251 1_565 S
O36 Mg29 2.079 1_465 S
O36 C38 1.273 . S
C37 O33 1.246 . S
C37 O34 1.259 . S
C38 O35 1.252 . S
C38 O36 1.273 . S
O39 Mg26 2.010 . S
O39 C31 1.249 . S
Mg40 O41 2.028 . S
Mg40 O47 1.986 . S
Mg40 O49 2.114 1_545 S
Mg40 O50 2.251 1_545 S
Mg40 O53 2.010 1_455 S
O41 Mg40 2.028 . S
O41 C44 1.250 . S
O42 Mg43 2.028 . S
O42 C44 1.248 . S
Mg43 O42 2.028 . S
Mg43 O48 2.032 . S
Mg43 O50 2.079 1_545 S
C44 O41 1.250 . S
C44 O42 1.248 . S
C45 O46 1.264 . S
C45 O53 1.249 . S
O46 C45 1.264 . S
O47 Mg40 1.986 . S
O47 C51 1.246 . S
O48 Mg43 2.032 . S
O48 C51 1.259 . S
O49 Mg40 2.114 1_565 S
O49 C52 1.252 . S
O50 Mg40 2.251 1_565 S
O50 Mg43 2.079 1_565 S
O50 C52 1.273 . S
C51 O47 1.246 . S
C51 O48 1.259 . S
C52 O49 1.252 . S
C52 O50 1.273 . S
O53 Mg40 2.010 1_655 S
O53 C45 1.249 . S
C54 C55 1.170 . S
C54 C56 1.380 . S
C55 C54 1.170 . S
C56 C54 1.380 . S
C56 C57 1.170 . S
C57 C56 1.170 . S
C58 C59 1.170 . S
C58 C60 1.380 . S
C59 C58 1.170 . S
C60 C58 1.380 . S
C60 C61 1.170 . S
C61 C60 1.170 . S
C62 C63 1.170 . S
C62 C64 1.380 . S
C63 C62 1.170 . S
C64 C62 1.380 . S
C64 C65 1.170 . S
C65 C64 1.170 . S
C66 C67 1.170 . S
C66 C68 1.380 . S
C67 C66 1.170 . S
C68 C66 1.380 . S
C68 C69 1.170 . S
C69 C68 1.170 . S
C70 C71 1.170 . S
C70 C72 1.380 . S
C71 C70 1.170 . S
C72 C70 1.380 . S
C72 C73 1.170 . S
C73 C72 1.170 . S
C74 C75 1.170 . S
C74 C76 1.380 . S
C75 C74 1.170 . S
C76 C74 1.380 . S
C76 C77 1.170 . S
C77 C76 1.170 . S
C78 C79 1.170 . S
C78 C80 1.380 . S
C79 C78 1.170 . S
C80 C78 1.380 . S
C80 C81 1.170 . S
C81 C80 1.170 . S
C82 C83 1.170 . S
C82 C84 1.380 . S
C83 C82 1.170 . S
C84 C82 1.380 . S
C84 C85 1.170 . S
C85 C84 1.170 . S
C57 C31 1.207 . S
C55 C5 1.427 1_545 S
C61 C51 1.462 . S
C59 C23 1.485 . S
C65 C30 1.407 . S
C63 C3 1.436 1_545 S
C69 C52 1.503 . S
C67 C14 1.502 . S
C73 C44 1.455 . S
C71 C1 1.494 . S
C77 C37 1.396 . S
C75 C16 1.411 . S
C81 C45 1.262 . S
C79 C10 1.485 . S
C83 C18 1.436 . S
C85 C38 1.446 . S
