# Generated by pormake.
# Topology nia, (6,6)-cn, num edge types: 1
# Building blocks:
#     Node 0, Type 0, BuildingBlock: JUFBIX_clean_sbu_0, # of connection points: 6
#     Node 1, Type 0, BuildingBlock: JUFBIX_clean_sbu_0, # of connection points: 6
#     Node 2, Type 1, BuildingBlock: MIDCAF_clean_sbu_0, # of connection points: 6
#     Node 3, Type 1, BuildingBlock: MIDCAF_clean_sbu_0, # of connection points: 6
#     Edge 4, Type (0, 1), BuildingBlock: EYOCIG_clean_linker_4, # of connection points: 2
#     Edge 5, Type (0, 1), BuildingBlock: EYOCIG_clean_linker_4, # of connection points: 2
#     Edge 6, Type (0, 1), BuildingBlock: EYOCIG_clean_linker_4, # of connection points: 2
#     Edge 7, Type (0, 1), BuildingBlock: EYOCIG_clean_linker_4, # of connection points: 2
#     Edge 8, Type (0, 1), BuildingBlock: EYOCIG_clean_linker_4, # of connection points: 2
#     Edge 9, Type (0, 1), BuildingBlock: EYOCIG_clean_linker_4, # of connection points: 2
#     Edge 10, Type (0, 1), BuildingBlock: EYOCIG_clean_linker_4, # of connection points: 2
#     Edge 11, Type (0, 1), BuildingBlock: EYOCIG_clean_linker_4, # of connection points: 2
#     Edge 12, Type (0, 1), BuildingBlock: EYOCIG_clean_linker_4, # of connection points: 2
#     Edge 13, Type (0, 1), BuildingBlock: EYOCIG_clean_linker_4, # of connection points: 2
#     Edge 14, Type (0, 1), BuildingBlock: EYOCIG_clean_linker_4, # of connection points: 2
#     Edge 15, Type (0, 1), BuildingBlock: EYOCIG_clean_linker_4, # of connection points: 2
# Relax obj value: 0.163
# Max RMSD: 0.241
# Mean RMSD: 0.161
data_MOF--net-nia--node1-JUFBIX_clean_sbu_0--node2-MIDCAF_clean_sbu_0--edge1-EYOCIG_clean_linker_4
_symmetry_space_group_name_H-M    P1
_symmetry_Int_Tables_number       1
_symmetry_cell_setting            triclinic
loop_
_symmetry_equiv_pos_as_xyz
'x, y, z'
_cell_length_a     19.779102
_cell_length_b     19.791791
_cell_length_c     25.689401
_cell_angle_alpha  82.443066
_cell_angle_beta   82.486776
_cell_angle_gamma 121.21271
loop_
_atom_site_label
_atom_site_type_symbol
_atom_site_fract_x
_atom_site_fract_y
_atom_site_fract_z
_atom_type_partial_charge
Co0 Co 0.91868 0.91105 1.06736 0.0
C1 C 0.81841 0.91922 0.15152 0.0
Co2 Co -0.022 0.02446 0.0974 0.0
C3 C 0.89464 0.78525 1.01006 0.0
C4 C 0.78227 0.76362 1.05296 0.0
N5 N 0.86385 0.81548 1.04336 0.0
N6 N 0.83542 0.71771 0.99886 0.0
C7 C 0.76483 0.70334 1.02582 0.0
H8 H -0.0412 0.81264 0.99345 0.0
H9 H 0.73755 0.76984 0.07693 0.0
C10 C 0.07768 0.01713 1.01265 0.0
N11 N 0.03499 0.12064 0.12121 0.0
C12 C 0.00872 0.14618 0.16099 0.0
C13 C 0.11599 0.17721 0.10477 0.0
N14 N 0.0701 0.21526 0.1693 0.0
C15 C 0.13737 0.23526 0.13413 0.0
C16 C -0.00712 0.90192 0.14948 0.0
O17 O 0.01549 0.94823 1.01461 0.0
O18 O 0.07334 0.05902 1.04452 0.0
O19 O 0.01031 -0.02621 0.14766 0.0
O20 O -0.04782 0.86194 0.11779 0.0
O21 O 0.88112 -0.01204 0.14953 0.0
H22 H 0.15849 0.17645 1.07427 0.0
H23 H -0.05348 0.11447 0.18408 0.0
O24 O 0.8225 0.87589 0.12053 0.0
O25 O 0.88565 -0.03902 1.01758 0.0
O26 O -0.0556 0.0736 1.04674 0.0
C27 C 0.90257 0.03265 1.01574 0.0
H28 H 0.70501 0.65378 1.02491 0.0
H29 H 0.19784 0.28754 0.13056 0.0
Co30 Co 0.0052 -0.00246 0.60022 0.0
C31 C -0.00216 0.09776 0.51555 0.0
Co32 Co 0.8918 0.93857 0.57008 0.0
C33 C 0.13054 0.02132 0.65808 0.0
C34 C 0.15303 0.13366 0.61444 0.0
N35 N 0.10073 0.05215 0.62438 0.0
N36 N 0.19825 0.08047 0.66919 0.0
C37 C 0.21316 0.15103 0.64176 0.0
H38 H 0.10275 -0.04278 0.67502 0.0
H39 H 0.14727 0.17842 0.59008 0.0
C40 C 0.89828 0.83886 0.6553 0.0
N41 N 0.79582 0.88193 0.54605 0.0
C42 C 0.76912 0.90899 0.50748 0.0
C43 C 0.74096 0.8005 0.56073 0.0
N44 N 0.70093 0.84765 0.4982 0.0
C45 C 0.68266 0.77962 0.53156 0.0
C46 C 0.01397 0.92257 0.51863 0.0
O47 O -0.03251 0.90079 0.65316 0.0
O48 O 0.8564 0.8434 0.62343 0.0
O49 O -0.05784 0.90539 0.52036 0.0
O50 O 0.05417 -0.03644 0.55012 0.0
O51 O 0.92901 0.0352 0.51749 0.0
H52 H 0.74338 0.75746 0.58966 0.0
H53 H 0.79952 -0.02827 0.48581 0.0
O54 O 0.04088 0.09362 0.54681 0.0
O55 O -0.04456 0.03105 0.64967 0.0
O56 O 0.84296 -0.02698 0.6202 0.0
C57 C 0.88396 0.01471 0.65123 0.0
H58 H 0.263 0.2108 0.64245 0.0
H59 H 0.6316 0.71899 0.53385 0.0
Zn60 Zn 0.27922 0.69334 0.22304 0.0
Zn61 Zn 0.22292 0.63614 0.44448 0.0
Zn62 Zn 0.24976 0.66629 0.33379 0.0
C63 C 0.39206 0.73099 0.39849 0.0
C64 C 0.1508 0.48607 0.41722 0.0
O65 O 0.18924 0.7273 0.30637 0.0
O66 O 0.21591 0.74512 0.2172 0.0
C67 C 0.42976 0.76632 0.25001 0.0
O68 O 0.36882 0.72682 0.3539 0.0
O69 O 0.34117 0.69492 0.44349 0.0
O70 O 0.15797 0.51484 0.45865 0.0
O71 O 0.18064 0.53333 0.36955 0.0
O72 O 0.40064 0.75903 0.2087 0.0
O73 O 0.38275 0.73619 0.29777 0.0
O74 O 0.19012 0.54741 0.31344 0.0
O75 O 0.2213 0.57522 0.22384 0.0
C76 C 0.18595 0.52426 0.26883 0.0
O77 O 0.18799 0.72585 0.36175 0.0
O78 O 0.17033 0.69859 0.4509 0.0
C79 C 0.18161 0.7513 0.25968 0.0
C80 C 0.16387 0.73298 0.40857 0.0
Zn81 Zn 0.61544 0.24174 0.94372 0.0
Zn82 Zn 0.67452 0.30166 0.72369 0.0
Zn83 Zn 0.64679 0.27006 0.83373 0.0
C84 C 0.73517 0.44987 0.75308 0.0
C85 C 0.50619 0.19453 0.76794 0.0
O86 O 0.70378 0.20618 0.86192 0.0
O87 O 0.66411 0.17544 0.9513 0.0
C88 C 0.72217 0.41014 0.89979 0.0
O89 O 0.71271 0.40272 0.80004 0.0
O90 O 0.72472 0.42162 0.71148 0.0
O91 O 0.55777 0.22922 0.72324 0.0
O92 O 0.52814 0.20568 0.81267 0.0
O93 O 0.68763 0.35834 0.9444 0.0
O94 O 0.711 0.38849 0.85499 0.0
O95 O 0.51406 0.20367 0.86764 0.0
O96 O 0.49533 0.19116 0.95624 0.0
C97 C 0.46695 0.18084 0.91468 0.0
O98 O 0.71098 0.21362 0.80514 0.0
O99 O 0.74118 0.2534 0.71577 0.0
C100 C 0.70314 0.17383 0.90898 0.0
C101 C 0.74319 0.21446 0.75798 0.0
C102 C 0.05272 0.84071 0.21282 0.0
C103 C 0.02553 0.86891 0.18398 0.0
C104 C 0.09232 0.8095 0.23958 0.0
C105 C 0.13084 0.78247 0.25438 0.0
C106 C 0.29061 0.07938 0.73181 0.0
C107 C 0.24399 0.07303 0.70408 0.0
C108 C 0.35714 0.107 0.75619 0.0
C109 C 0.4221 0.14438 0.76737 0.0
C110 C 0.07827 0.30621 0.23541 0.0
C111 C 0.06777 0.25984 0.20672 0.0
C112 C 0.10671 0.37363 0.2589 0.0
C113 C 0.14036 0.43962 0.26896 0.0
C114 C 0.82924 0.08256 0.71141 0.0
C115 C 0.85372 0.05133 0.68381 0.0
C116 C 0.80141 0.12548 0.73704 0.0
C117 C 0.77399 0.16369 0.75167 0.0
C118 C 0.67226 0.86815 0.2084 0.0
C119 C 0.74046 0.89452 0.18344 0.0
C120 C 0.5889 0.83506 0.23026 0.0
C121 C 0.51609 0.80319 0.24282 0.0
C122 C 0.83966 0.6924 0.71442 0.0
C123 C 0.8704 0.76115 0.68887 0.0
C124 C 0.80297 0.6084 0.73582 0.0
C125 C 0.77177 0.53577 0.74721 0.0
C126 C 0.07454 0.8618 0.45577 0.0
C127 C 0.04668 0.88943 0.48441 0.0
C128 C 0.1055 0.82197 0.42909 0.0
C129 C 0.13257 0.78356 0.41418 0.0
C130 C 0.22416 0.07555 0.95355 0.0
C131 C 0.15536 0.04483 0.97905 0.0
C132 C 0.30822 0.11247 0.93212 0.0
C133 C 0.38094 0.14395 0.92065 0.0
C134 C 0.04942 0.24382 0.45837 0.0
C135 C 0.02284 0.17566 0.48346 0.0
C136 C 0.08253 0.32714 0.43654 0.0
C137 C 0.11419 0.39988 0.42413 0.0
C138 C 0.83529 0.08786 0.95524 0.0
C139 C 0.86626 0.06316 0.98298 0.0
C140 C 0.79245 0.11583 0.92959 0.0
C141 C 0.75412 0.14319 0.91506 0.0
C142 C 0.60981 0.84038 0.43235 0.0
C143 C 0.65613 0.85056 0.46106 0.0
C144 C 0.54259 0.81174 0.4086 0.0
C145 C 0.4767 0.77751 0.39836 0.0
C146 C 0.83667 0.62522 0.93649 0.0
C147 C 0.84288 0.67182 0.96415 0.0
C148 C 0.8093 0.55889 0.91198 0.0
C149 C 0.7721 0.4941 0.90059 0.0
loop_
_geom_bond_atom_site_label_1
_geom_bond_atom_site_label_2
_geom_bond_distance
_geom_bond_site_symmetry_2
_ccdc_geom_bond_type
Co0 N5 2.057 . S
Co0 O17 2.021 1_665 S
Co0 O20 2.062 1_656 S
Co0 O24 2.117 1_556 S
Co0 O25 2.020 1_565 S
C1 O21 1.259 1_565 S
C1 O24 1.258 . S
Co2 N11 2.057 . S
Co2 O18 2.117 1_554 S
Co2 O19 2.020 . S
Co2 O21 2.021 1_455 S
Co2 O26 2.062 1_454 S
C3 N5 1.316 . S
C3 N6 1.347 . S
C3 H8 0.931 1_655 S
C4 N5 1.375 . S
C4 C7 1.350 . S
C4 H9 0.930 . S
N5 Co0 2.057 . S
N5 C3 1.316 . S
N5 C4 1.375 . S
N6 C3 1.347 . S
N6 C7 1.373 . S
C7 C4 1.350 . S
C7 N6 1.373 . S
C7 H28 0.931 . S
H8 C3 0.931 1_455 S
H9 C4 0.930 . S
C10 O17 1.259 . S
C10 O18 1.258 . S
N11 Co2 2.057 . S
N11 C12 1.316 . S
N11 C13 1.375 . S
C12 N11 1.316 . S
C12 N14 1.347 . S
C12 H23 0.931 . S
C13 N11 1.375 . S
C13 C15 1.350 . S
C13 H22 0.930 . S
N14 C12 1.347 . S
N14 C15 1.373 . S
C15 C13 1.350 . S
C15 N14 1.373 . S
C15 H29 0.931 . S
C16 O19 1.256 1_565 S
C16 O20 1.255 . S
O17 Co0 2.021 1_445 S
O17 C10 1.259 . S
O18 Co2 2.117 1_556 S
O18 C10 1.258 . S
O19 Co2 2.020 . S
O19 C16 1.256 1_545 S
O20 Co0 2.062 1_454 S
O20 C16 1.255 . S
O21 C1 1.259 1_545 S
O21 Co2 2.021 1_655 S
H22 C13 0.930 . S
H23 C12 0.931 . S
O24 Co0 2.117 1_554 S
O24 C1 1.258 . S
O25 Co0 2.020 1_545 S
O25 C27 1.256 . S
O26 Co2 2.062 1_656 S
O26 C27 1.255 . S
C27 O25 1.256 . S
C27 O26 1.255 . S
H28 C7 0.931 . S
H29 C15 0.931 . S
Co30 N35 2.057 . S
Co30 O47 2.021 1_545 S
Co30 O50 2.062 1_545 S
Co30 O54 2.117 . S
Co30 O55 2.020 1_455 S
C31 O51 1.259 . S
C31 O54 1.258 . S
Co32 N41 2.057 . S
Co32 O48 2.117 . S
Co32 O49 2.020 1_655 S
Co32 O51 2.021 1_665 S
Co32 O56 2.062 1_565 S
C33 N35 1.316 . S
C33 N36 1.347 . S
C33 H38 0.931 . S
C34 N35 1.375 . S
C34 C37 1.350 . S
C34 H39 0.930 . S
N35 Co30 2.057 . S
N35 C33 1.316 . S
N35 C34 1.375 . S
N36 C33 1.347 . S
N36 C37 1.373 . S
C37 C34 1.350 . S
C37 N36 1.373 . S
C37 H58 0.931 . S
H38 C33 0.931 . S
H39 C34 0.930 . S
C40 O47 1.259 1_655 S
C40 O48 1.258 . S
N41 Co32 2.057 . S
N41 C42 1.316 . S
N41 C43 1.375 . S
C42 N41 1.316 . S
C42 N44 1.347 . S
C42 H53 0.931 . S
C43 N41 1.375 . S
C43 C45 1.350 . S
C43 H52 0.930 . S
N44 C42 1.347 . S
N44 C45 1.373 . S
C45 C43 1.350 . S
C45 N44 1.373 . S
C45 H59 0.931 . S
C46 O49 1.256 . S
C46 O50 1.255 . S
O47 Co30 2.021 1_565 S
O47 C40 1.259 1_455 S
O48 Co32 2.117 . S
O48 C40 1.258 . S
O49 Co32 2.020 1_455 S
O49 C46 1.256 . S
O50 Co30 2.062 1_565 S
O50 C46 1.255 . S
O51 C31 1.259 . S
O51 Co32 2.021 1_445 S
H52 C43 0.930 . S
H53 C42 0.931 . S
O54 Co30 2.117 . S
O54 C31 1.258 . S
O55 Co30 2.020 1_655 S
O55 C57 1.256 . S
O56 Co32 2.062 1_545 S
O56 C57 1.255 . S
C57 O55 1.256 . S
C57 O56 1.255 . S
H58 C37 0.931 . S
H59 C45 0.931 . S
Zn60 O66 1.920 . S
Zn60 O72 1.898 . S
Zn60 O75 1.905 . S
Zn61 O69 1.905 . S
Zn61 O70 1.898 . S
Zn61 O78 1.920 . S
Zn62 O65 2.080 . S
Zn62 O68 2.114 . S
Zn62 O71 2.120 . S
Zn62 O73 2.120 . S
Zn62 O74 2.114 . S
Zn62 O77 2.080 . S
C63 O68 1.166 . S
C63 O69 1.182 . S
C64 O70 1.167 . S
C64 O71 1.299 . S
O65 Zn62 2.080 . S
O65 C79 1.305 . S
O66 Zn60 1.920 . S
O66 C79 1.234 . S
C67 O72 1.167 . S
C67 O73 1.299 . S
O68 Zn62 2.114 . S
O68 C63 1.166 . S
O69 Zn61 1.905 . S
O69 C63 1.182 . S
O70 Zn61 1.898 . S
O70 C64 1.167 . S
O71 Zn62 2.120 . S
O71 C64 1.299 . S
O72 Zn60 1.898 . S
O72 C67 1.167 . S
O73 Zn62 2.120 . S
O73 C67 1.299 . S
O74 Zn62 2.114 . S
O74 C76 1.166 . S
O75 Zn60 1.905 . S
O75 C76 1.182 . S
C76 O74 1.166 . S
C76 O75 1.182 . S
O77 Zn62 2.080 . S
O77 C80 1.305 . S
O78 Zn61 1.920 . S
O78 C80 1.234 . S
C79 O65 1.305 . S
C79 O66 1.234 . S
C80 O77 1.305 . S
C80 O78 1.234 . S
Zn81 O87 1.920 . S
Zn81 O93 1.898 . S
Zn81 O96 1.905 . S
Zn82 O90 1.905 . S
Zn82 O91 1.898 . S
Zn82 O99 1.920 . S
Zn83 O86 2.080 . S
Zn83 O89 2.114 . S
Zn83 O92 2.120 . S
Zn83 O94 2.120 . S
Zn83 O95 2.114 . S
Zn83 O98 2.080 . S
C84 O89 1.166 . S
C84 O90 1.182 . S
C85 O91 1.167 . S
C85 O92 1.299 . S
O86 Zn83 2.080 . S
O86 C100 1.305 . S
O87 Zn81 1.920 . S
O87 C100 1.234 . S
C88 O93 1.167 . S
C88 O94 1.299 . S
O89 Zn83 2.114 . S
O89 C84 1.166 . S
O90 Zn82 1.905 . S
O90 C84 1.182 . S
O91 Zn82 1.898 . S
O91 C85 1.167 . S
O92 Zn83 2.120 . S
O92 C85 1.299 . S
O93 Zn81 1.898 . S
O93 C88 1.167 . S
O94 Zn83 2.120 . S
O94 C88 1.299 . S
O95 Zn83 2.114 . S
O95 C97 1.166 . S
O96 Zn81 1.905 . S
O96 C97 1.182 . S
C97 O95 1.166 . S
C97 O96 1.182 . S
O98 Zn83 2.080 . S
O98 C101 1.305 . S
O99 Zn82 1.920 . S
O99 C101 1.234 . S
C100 O86 1.305 . S
C100 O87 1.234 . S
C101 O98 1.305 . S
C101 O99 1.234 . S
C102 C103 1.170 . S
C102 C104 1.380 . S
C103 C102 1.170 . S
C104 C102 1.380 . S
C104 C105 1.170 . S
C105 C104 1.170 . S
C106 C107 1.170 . S
C106 C108 1.380 . S
C107 C106 1.170 . S
C108 C106 1.380 . S
C108 C109 1.170 . S
C109 C108 1.170 . S
C110 C111 1.170 . S
C110 C112 1.380 . S
C111 C110 1.170 . S
C112 C110 1.380 . S
C112 C113 1.170 . S
C113 C112 1.170 . S
C114 C115 1.170 . S
C114 C116 1.380 . S
C115 C114 1.170 . S
C116 C114 1.380 . S
C116 C117 1.170 . S
C117 C116 1.170 . S
C118 C119 1.170 . S
C118 C120 1.380 . S
C119 C118 1.170 . S
C120 C118 1.380 . S
C120 C121 1.170 . S
C121 C120 1.170 . S
C122 C123 1.170 . S
C122 C124 1.380 . S
C123 C122 1.170 . S
C124 C122 1.380 . S
C124 C125 1.170 . S
C125 C124 1.170 . S
C126 C127 1.170 . S
C126 C128 1.380 . S
C127 C126 1.170 . S
C128 C126 1.380 . S
C128 C129 1.170 . S
C129 C128 1.170 . S
C130 C131 1.170 . S
C130 C132 1.380 . S
C131 C130 1.170 . S
C132 C130 1.380 . S
C132 C133 1.170 . S
C133 C132 1.170 . S
C134 C135 1.170 . S
C134 C136 1.380 . S
C135 C134 1.170 . S
C136 C134 1.380 . S
C136 C137 1.170 . S
C137 C136 1.170 . S
C138 C139 1.170 . S
C138 C140 1.380 . S
C139 C138 1.170 . S
C140 C138 1.380 . S
C140 C141 1.170 . S
C141 C140 1.170 . S
C142 C143 1.170 . S
C142 C144 1.380 . S
C143 C142 1.170 . S
C144 C142 1.380 . S
C144 C145 1.170 . S
C145 C144 1.170 . S
C146 C147 1.170 . S
C146 C148 1.380 . S
C147 C146 1.170 . S
C148 C146 1.380 . S
C148 C149 1.170 . S
C149 C148 1.170 . S
C103 C16 1.517 . S
C105 C79 1.375 . S
C107 N36 1.248 . S
C109 C85 1.162 . S
C111 N14 1.224 . S
C113 C76 1.171 . S
C115 C57 1.681 . S
C117 C101 1.520 . S
C119 C1 1.837 . S
C121 C67 1.685 . S
C125 C84 1.590 . S
C123 C40 1.691 . S
C127 C46 1.520 . S
C129 C80 1.314 . S
C133 C97 1.584 . S
C131 C10 1.692 . S
C137 C64 1.679 . S
C135 C31 1.839 . S
C141 C100 1.482 . S
C139 C27 1.698 . S
C145 C63 1.132 . S
C143 N44 1.261 . S
C149 C88 1.150 . S
C147 N6 1.254 . S
