# Generated by pormake.
# Topology scu, (8,4)-cn, num edge types: 1
# Building blocks:
#     Node 0, Type 0, BuildingBlock: TAGTUT_clean_sbu_3, # of connection points: 8
#     Node 1, Type 1, BuildingBlock: NAWXER_clean_sbu_0, # of connection points: 4
#     Node 2, Type 1, BuildingBlock: NAWXER_clean_sbu_0, # of connection points: 4
#     Edge 3, Type (0, 1), BuildingBlock: CIFDUS_clean_linker_0, # of connection points: 2
#     Edge 4, Type (0, 1), BuildingBlock: CIFDUS_clean_linker_0, # of connection points: 2
#     Edge 5, Type (0, 1), BuildingBlock: CIFDUS_clean_linker_0, # of connection points: 2
#     Edge 6, Type (0, 1), BuildingBlock: CIFDUS_clean_linker_0, # of connection points: 2
#     Edge 7, Type (0, 1), BuildingBlock: CIFDUS_clean_linker_0, # of connection points: 2
#     Edge 8, Type (0, 1), BuildingBlock: CIFDUS_clean_linker_0, # of connection points: 2
#     Edge 9, Type (0, 1), BuildingBlock: CIFDUS_clean_linker_0, # of connection points: 2
#     Edge 10, Type (0, 1), BuildingBlock: CIFDUS_clean_linker_0, # of connection points: 2
# Relax obj value: 0.033
# Max RMSD: 0.094
# Mean RMSD: 0.066
data_MOF--net-scu--node1-TAGTUT_clean_sbu_3--node2-NAWXER_clean_sbu_0--edge1-CIFDUS_clean_linker_0
_symmetry_space_group_name_H-M    P1
_symmetry_Int_Tables_number       1
_symmetry_cell_setting            triclinic
loop_
_symmetry_equiv_pos_as_xyz
'x, y, z'
_cell_length_a     23.870229
_cell_length_b     19.847758
_cell_length_c     17.831756
_cell_angle_alpha  89.964944
_cell_angle_beta   90.226632
_cell_angle_gamma 89.657649
loop_
_atom_site_label
_atom_site_type_symbol
_atom_site_fract_x
_atom_site_fract_y
_atom_site_fract_z
_atom_type_partial_charge
C0 C 0.99911 0.86807 0.10526 0.0
C1 C 0.79515 0.97852 0.06148 0.0
C2 C 0.86041 0.02098 0.8419 0.0
Mg3 Mg 0.11767 0.90829 0.03307 0.0
Mg4 Mg 0.14447 0.06449 0.98997 0.0
O5 O 0.09624 0.99177 0.97589 0.0
Mg6 Mg 0.01433 0.00047 -0.00076 0.0
O7 O 0.93221 -0.00075 0.02325 0.0
Mg8 Mg 0.90836 0.91214 0.97564 0.0
Mg9 Mg 0.8875 0.07273 -0.00439 0.0
C10 C 0.04732 0.12891 0.89034 0.0
O11 O 0.02041 0.09396 0.08012 0.0
O12 O 0.20225 0.90954 0.96459 0.0
O13 O 0.93884 0.14651 0.05042 0.0
O14 O 0.15978 0.96766 0.1288 0.0
O15 O 0.21591 0.01897 0.93773 0.0
O16 O 0.16425 0.07776 0.10663 0.0
O17 O 0.99642 0.91123 0.9205 0.0
O18 O 0.0733 0.84929 0.94106 0.0
C19 C 0.02564 0.85798 0.9092 0.0
C20 C 0.23079 0.95697 0.93372 0.0
O21 O 1.01105 0.08273 0.90516 0.0
O22 O 0.82279 0.92591 0.04026 0.0
O23 O 0.09518 0.13328 0.92315 0.0
O24 O 0.86917 0.96325 0.87153 0.0
O25 O 0.8126 0.03847 0.04927 0.0
O26 O 0.87154 0.07495 0.87738 0.0
O27 O 0.02982 0.91857 0.08868 0.0
O28 O 0.95083 0.85985 0.07503 0.0
C29 C 0.17248 0.02726 0.14958 0.0
C30 C 0.98618 0.14465 0.08492 0.0
C31 C 0.9494 0.60908 0.58446 0.0
C32 C 0.96447 0.44241 0.38344 0.0
O33 O 0.99827 0.58311 0.57656 0.0
Zn34 Zn 0.04197 0.5144 0.5061 0.0
O35 O 0.90983 0.59271 0.54018 0.0
Zn36 Zn 0.95375 0.52687 0.48343 0.0
O37 O 0.97366 0.45215 0.56614 0.0
O38 O 0.06595 0.4467 0.5768 0.0
O39 O 0.9206 0.47419 0.40379 0.0
O40 O 1.01101 0.45326 0.4171 0.0
O41 O 0.09601 0.57323 0.45626 0.0
O42 O 1.00793 0.59018 0.42176 0.0
C43 C 0.01765 0.42628 0.59615 0.0
C44 C 0.05999 0.60408 0.41603 0.0
C45 C 0.60791 0.06165 0.55977 0.0
C46 C 0.43223 0.06434 0.42029 0.0
O47 O 0.58756 0.00243 0.55107 0.0
Zn48 Zn 0.51526 0.95665 0.49958 0.0
O49 O 0.58161 0.11243 0.53379 0.0
Zn50 Zn 0.52022 0.06338 0.48997 0.0
O51 O 0.47699 0.02718 0.58707 0.0
O52 O 0.47659 0.91609 0.58477 0.0
O53 O 0.46329 0.11382 0.43728 0.0
O54 O 0.44698 0.00446 0.43967 0.0
O55 O 0.55072 0.89931 0.42425 0.0
O56 O 0.56051 0.00796 0.40203 0.0
C57 C 0.46305 0.97095 0.61698 0.0
C58 C 0.56968 0.94648 0.38342 0.0
H59 H 0.91917 0.25268 0.10878 0.0
H60 H 0.07568 0.16346 0.18202 0.0
H61 H 0.08379 0.25024 0.27948 0.0
H62 H 0.04264 0.34682 0.34848 0.0
H63 H 0.88263 0.42818 0.27792 0.0
H64 H 0.87935 0.34758 0.17487 0.0
C65 C 0.95552 0.25186 0.14545 0.0
C66 C 0.9967 0.20098 0.13799 0.0
C67 C 0.95877 0.29996 0.20246 0.0
C68 C 0.04339 0.20183 0.18622 0.0
C69 C 0.0478 0.2512 0.24226 0.0
C70 C 1.00714 0.34704 0.31035 0.0
C71 C 0.96274 0.39339 0.32103 0.0
C72 C 1.00512 0.29971 0.25173 0.0
C73 C 0.91702 0.39284 0.27138 0.0
C74 C 0.91526 0.34695 0.21227 0.0
H75 H 0.76265 0.87552 0.15507 0.0
H76 H 0.70955 0.0681 0.06625 0.0
H77 H 0.63131 0.07111 0.15297 0.0
H78 H 0.58474 0.02673 0.26351 0.0
H79 H 0.63619 0.83553 0.35636 0.0
H80 H 0.70748 0.82375 0.25829 0.0
C81 C 0.73319 0.91729 0.1537 0.0
C82 C 0.74252 0.97197 0.10489 0.0
C83 C 0.68828 0.91939 0.20506 0.0
C84 C 0.70395 0.02583 0.10392 0.0
C85 C 0.65911 0.02771 0.15359 0.0
C86 C 0.61102 0.98196 0.26174 0.0
C87 C 0.6057 0.93254 0.31763 0.0
C88 C 0.65202 0.97601 0.206 0.0
C89 C 0.63948 0.87437 0.31393 0.0
C90 C 0.6805 0.86786 0.25813 0.0
H91 H 0.06481 0.87032 0.23206 0.0
H92 H 0.98636 0.7371 0.07237 0.0
H93 H 1.01062 0.64011 0.14941 0.0
H94 H 0.03888 0.59552 0.27065 0.0
H95 H 0.11138 0.72585 0.43694 0.0
H96 H 0.10634 0.82124 0.34886 0.0
C97 C 0.0541 0.81985 0.21391 0.0
C98 C 0.02258 0.81079 0.14786 0.0
C99 C 0.06702 0.76389 0.25978 0.0
C100 C 1.00929 0.7453 0.12413 0.0
C101 C 0.02335 0.68977 0.1679 0.0
C102 C 0.05542 0.64439 0.28644 0.0
C103 C 0.07562 0.65412 0.35938 0.0
C104 C 0.05002 0.69877 0.23708 0.0
C105 C 0.09643 0.71739 0.38031 0.0
C106 C 0.0927 0.77197 0.33036 0.0
H107 H 0.24081 0.13152 0.18783 0.0
H108 H 0.18208 0.93839 0.26544 0.0
H109 H 0.25541 0.93562 0.36088 0.0
H110 H 0.34359 0.98025 0.41035 0.0
H111 H 0.40378 0.17236 0.33241 0.0
H112 H 0.32248 0.18335 0.24924 0.0
C113 C 0.24307 0.0897 0.22692 0.0
C114 C 0.20649 0.03479 0.21868 0.0
C115 C 0.28636 0.08753 0.28061 0.0
C116 C 0.21008 0.98099 0.26992 0.0
C117 C 0.25225 0.97912 0.32429 0.0
C118 C 0.33868 0.02481 0.37563 0.0
C119 C 0.38015 0.07479 0.37646 0.0
C120 C 0.29197 0.03072 0.328 0.0
C121 C 0.37264 0.13289 0.33234 0.0
C122 C 0.32618 0.13917 0.28472 0.0
H123 H 0.95105 0.86394 0.79164 0.0
H124 H 0.04994 0.726 0.92584 0.0
H125 H 0.02629 0.63389 0.84224 0.0
H126 H 0.98944 0.59585 0.72282 0.0
H127 H 0.89364 0.73088 0.58262 0.0
H128 H 0.90284 0.82046 0.67722 0.0
C129 C 0.96651 0.81344 0.80299 0.0
C130 C 1.00331 0.80208 0.86371 0.0
C131 C 0.95352 0.76035 0.75351 0.0
C132 C 0.02271 0.73637 0.87839 0.0
C133 C 1.00907 0.68353 0.83082 0.0
C134 C 0.96954 0.64454 0.71378 0.0
C135 C 0.94149 0.65739 0.64608 0.0
C136 C 0.97636 0.69549 0.76693 0.0
C137 C 0.91529 0.7201 0.6348 0.0
C138 C 0.92111 0.77136 0.68847 0.0
H139 H 0.31461 0.04088 0.89636 0.0
H140 H 0.25659 0.83791 0.86161 0.0
H141 H 0.32754 0.82129 0.76398 0.0
H142 H 0.39906 0.86994 0.67844 0.0
H143 H 0.45239 0.07512 0.71375 0.0
H144 H 0.39035 0.08516 0.82081 0.0
C145 C 0.31781 0.99257 0.8682 0.0
C146 C 0.27985 0.94102 0.88573 0.0
C147 C 0.35756 0.98406 0.81131 0.0
C148 C 0.28529 0.87848 0.84935 0.0
C149 C 0.32558 0.86919 0.79302 0.0
C150 C 0.39763 0.91641 0.71032 0.0
C151 C 0.42989 0.97198 0.68725 0.0
C152 C 0.36089 0.9224 0.77191 0.0
C153 C 0.42755 0.03183 0.72934 0.0
C154 C 0.3921 0.03769 0.79083 0.0
H155 H 0.96458 0.22162 0.85839 0.0
H156 H 0.11752 0.13311 0.77506 0.0
H157 H 0.12194 0.21698 0.6757 0.0
H158 H 0.08728 0.32095 0.61892 0.0
H159 H 0.93334 0.41021 0.69726 0.0
H160 H 0.92441 0.32152 0.79219 0.0
C161 C 0.9979 0.22014 0.81723 0.0
C162 C 0.04077 0.17181 0.82376 0.0
C163 C 1.00071 0.26947 0.76042 0.0
C164 C 0.08421 0.17032 0.77084 0.0
C165 C 0.08701 0.2184 0.71436 0.0
C166 C 0.05184 0.32089 0.65686 0.0
C167 C 0.0116 0.37227 0.65219 0.0
C168 C 0.04647 0.26931 0.70994 0.0
C169 C 0.96509 0.37106 0.70037 0.0
C170 C 0.95991 0.32039 0.75451 0.0
H171 H 0.8036 0.12888 0.78404 0.0
H172 H 0.84209 0.91938 0.74223 0.0
H173 H 0.76987 0.91557 0.64543 0.0
H174 H 0.68747 0.96683 0.58583 0.0
H175 H 0.64709 0.17544 0.6284 0.0
H176 H 0.72854 0.18455 0.71148 0.0
C177 C 0.79721 0.08287 0.75245 0.0
C178 C 0.82763 0.02421 0.77131 0.0
C179 C 0.75452 0.08047 0.69801 0.0
C180 C 0.81885 0.96507 0.72955 0.0
C181 C 0.7773 0.96269 0.67442 0.0
C182 C 0.69678 0.0145 0.61274 0.0
C183 C 0.66074 0.07 0.60221 0.0
C184 C 0.74339 0.01923 0.66051 0.0
C185 C 0.67397 0.13181 0.63613 0.0
C186 C 0.72047 0.137 0.68373 0.0
loop_
_geom_bond_atom_site_label_1
_geom_bond_atom_site_label_2
_geom_bond_distance
_geom_bond_site_symmetry_2
_ccdc_geom_bond_type
C0 O27 1.312 1_655 S
C0 O28 1.208 . S
C1 O22 1.331 . S
C1 O25 1.244 1_565 S
C2 O24 1.264 1_545 S
C2 O26 1.273 . S
Mg3 O5 1.936 1_565 S
Mg3 O12 2.081 . S
Mg3 O14 2.023 1_556 S
Mg3 O18 2.031 . S
Mg3 O27 2.291 1_556 S
Mg4 O5 1.963 . S
Mg4 O15 1.942 . S
Mg4 O16 1.955 1_556 S
Mg4 O23 1.986 . S
O5 Mg3 1.936 1_545 S
O5 Mg4 1.963 . S
O5 Mg6 1.915 1_556 S
Mg6 O5 1.915 1_554 S
Mg6 O7 1.915 1_455 S
Mg6 O11 2.013 . S
Mg6 O17 2.114 1_444 S
Mg6 O21 2.013 1_454 S
Mg6 O27 2.114 1_545 S
O7 Mg6 1.915 1_655 S
O7 Mg8 1.936 1_545 S
O7 Mg9 1.963 . S
Mg8 O7 1.936 1_565 S
Mg8 O17 2.291 1_554 S
Mg8 O22 2.081 . S
Mg8 O24 2.023 1_554 S
Mg8 O28 2.031 . S
Mg9 O7 1.963 . S
Mg9 O13 1.986 . S
Mg9 O25 1.942 . S
Mg9 O26 1.955 1_554 S
C10 O21 1.191 1_455 S
C10 O23 1.307 . S
O11 Mg6 2.013 . S
O11 C30 1.191 1_455 S
O12 Mg3 2.081 . S
O12 C20 1.331 . S
O13 Mg9 1.986 . S
O13 C30 1.307 . S
O14 Mg3 2.023 1_554 S
O14 C29 1.264 1_565 S
O15 Mg4 1.942 . S
O15 C20 1.244 1_545 S
O16 Mg4 1.955 1_554 S
O16 C29 1.273 . S
O17 Mg6 2.114 1_666 S
O17 Mg8 2.291 1_556 S
O17 C19 1.312 1_655 S
O18 Mg3 2.031 . S
O18 C19 1.208 . S
C19 O17 1.312 1_455 S
C19 O18 1.208 . S
C20 O12 1.331 . S
C20 O15 1.244 1_565 S
O21 Mg6 2.013 1_656 S
O21 C10 1.191 1_655 S
O22 C1 1.331 . S
O22 Mg8 2.081 . S
O23 Mg4 1.986 . S
O23 C10 1.307 . S
O24 C2 1.264 1_565 S
O24 Mg8 2.023 1_556 S
O25 C1 1.244 1_545 S
O25 Mg9 1.942 . S
O26 C2 1.273 . S
O26 Mg9 1.955 1_556 S
O27 C0 1.312 1_455 S
O27 Mg3 2.291 1_554 S
O27 Mg6 2.114 1_565 S
O28 C0 1.208 . S
O28 Mg8 2.031 . S
C29 O14 1.264 1_545 S
C29 O16 1.273 . S
C30 O11 1.191 1_655 S
C30 O13 1.307 . S
C31 O33 1.251 . S
C31 O35 1.254 1_455 S
C32 O39 1.247 . S
C32 O40 1.258 1_655 S
O33 C31 1.251 . S
O33 Zn34 2.028 . S
Zn34 O33 2.028 . S
Zn34 O38 2.035 . S
Zn34 O40 2.035 . S
Zn34 O41 2.028 . S
O35 C31 1.254 1_655 S
O35 Zn36 2.035 . S
Zn36 O35 2.035 . S
Zn36 O37 2.028 . S
Zn36 O39 2.028 . S
Zn36 O42 2.035 . S
O37 Zn36 2.028 . S
O37 C43 1.247 . S
O38 Zn34 2.035 . S
O38 C43 1.258 1_455 S
O39 C32 1.247 . S
O39 Zn36 2.028 . S
O40 C32 1.258 1_455 S
O40 Zn34 2.035 . S
O41 Zn34 2.028 . S
O41 C44 1.251 . S
O42 Zn36 2.035 . S
O42 C44 1.254 1_655 S
C43 O37 1.247 . S
C43 O38 1.258 1_655 S
C44 O41 1.251 . S
C44 O42 1.254 1_455 S
C45 O47 1.247 1_545 S
C45 O49 1.258 . S
C46 O53 1.247 . S
C46 O54 1.258 1_545 S
O47 C45 1.247 1_565 S
O47 Zn48 2.028 . S
Zn48 O47 2.028 . S
Zn48 O52 2.035 . S
Zn48 O54 2.035 . S
Zn48 O55 2.028 . S
O49 C45 1.258 . S
O49 Zn50 2.035 . S
Zn50 O49 2.035 . S
Zn50 O51 2.028 . S
Zn50 O53 2.028 . S
Zn50 O56 2.035 . S
O51 Zn50 2.028 . S
O51 C57 1.247 . S
O52 Zn48 2.035 . S
O52 C57 1.258 1_565 S
O53 C46 1.247 . S
O53 Zn50 2.028 . S
O54 C46 1.258 1_565 S
O54 Zn48 2.035 . S
O55 Zn48 2.028 . S
O55 C58 1.247 1_565 S
O56 Zn50 2.035 . S
O56 C58 1.258 . S
C57 O51 1.247 . S
C57 O52 1.258 1_545 S
C58 O55 1.247 1_545 S
C58 O56 1.258 . S
H59 C65 0.930 . S
H60 C68 0.930 . S
H61 C69 0.930 . S
H62 C70 0.930 . S
H63 C73 0.930 . S
H64 C74 0.930 . S
C65 H59 0.930 . S
C65 C66 1.354 1_655 S
C65 C67 1.415 . S
C66 C65 1.354 1_455 S
C66 C68 1.420 . S
C67 C65 1.415 . S
C67 C72 1.425 1_655 S
C67 C74 1.409 . S
C68 H60 0.930 . S
C68 C66 1.420 . S
C68 C69 1.362 . S
C69 H61 0.930 . S
C69 C68 1.362 . S
C69 C72 1.409 . S
C70 H62 0.930 . S
C70 C71 1.355 1_455 S
C70 C72 1.415 . S
C71 C70 1.355 1_655 S
C71 C73 1.419 . S
C72 C67 1.425 1_455 S
C72 C69 1.409 . S
C72 C70 1.415 . S
C73 H63 0.930 . S
C73 C71 1.419 . S
C73 C74 1.362 . S
C74 H64 0.930 . S
C74 C67 1.409 . S
C74 C73 1.362 . S
H75 C81 0.930 . S
H76 C84 0.930 . S
H77 C85 0.930 . S
H78 C86 0.930 . S
H79 C89 0.930 . S
H80 C90 0.930 . S
C81 H75 0.930 . S
C81 C82 1.355 . S
C81 C83 1.415 . S
C82 C81 1.355 . S
C82 C84 1.419 1_565 S
C83 C81 1.415 . S
C83 C88 1.425 1_565 S
C83 C90 1.409 . S
C84 H76 0.930 . S
C84 C82 1.419 1_545 S
C84 C85 1.362 . S
C85 H77 0.930 . S
C85 C84 1.362 . S
C85 C88 1.409 . S
C86 H78 0.930 . S
C86 C87 1.355 1_545 S
C86 C88 1.415 . S
C87 C86 1.355 1_565 S
C87 C89 1.419 . S
C88 C83 1.425 1_545 S
C88 C85 1.409 . S
C88 C86 1.415 . S
C89 H79 0.930 . S
C89 C87 1.419 . S
C89 C90 1.362 . S
C90 H80 0.930 . S
C90 C83 1.409 . S
C90 C89 1.362 . S
H91 C97 0.930 . S
H92 C100 0.930 . S
H93 C101 0.930 . S
H94 C102 0.930 . S
H95 C105 0.930 . S
H96 C106 0.930 . S
C97 H91 0.930 . S
C97 C98 1.355 . S
C97 C99 1.415 . S
C98 C97 1.355 . S
C98 C100 1.419 1_455 S
C99 C97 1.415 . S
C99 C104 1.425 1_455 S
C99 C106 1.409 . S
C100 H92 0.930 . S
C100 C98 1.419 1_655 S
C100 C101 1.362 . S
C101 H93 0.930 . S
C101 C100 1.362 . S
C101 C104 1.409 . S
C102 H94 0.930 . S
C102 C103 1.355 1_655 S
C102 C104 1.415 . S
C103 C102 1.355 1_455 S
C103 C105 1.419 . S
C104 C99 1.425 1_655 S
C104 C101 1.409 . S
C104 C102 1.415 . S
C105 H95 0.930 . S
C105 C103 1.419 . S
C105 C106 1.362 . S
C106 H96 0.930 . S
C106 C99 1.409 . S
C106 C105 1.362 . S
H107 C113 0.930 . S
H108 C116 0.930 . S
H109 C117 0.930 . S
H110 C118 0.930 . S
H111 C121 0.930 . S
H112 C122 0.930 . S
C113 H107 0.930 . S
C113 C114 1.355 . S
C113 C115 1.415 . S
C114 C113 1.355 . S
C114 C116 1.419 1_545 S
C115 C113 1.415 . S
C115 C120 1.425 1_545 S
C115 C122 1.409 . S
C116 H108 0.930 . S
C116 C114 1.419 1_565 S
C116 C117 1.362 . S
C117 H109 0.930 . S
C117 C116 1.362 . S
C117 C120 1.409 . S
C118 H110 0.930 . S
C118 C119 1.355 1_565 S
C118 C120 1.415 . S
C119 C118 1.355 1_545 S
C119 C121 1.419 . S
C120 C115 1.425 1_565 S
C120 C117 1.409 . S
C120 C118 1.415 . S
C121 H111 0.930 . S
C121 C119 1.419 . S
C121 C122 1.362 . S
C122 H112 0.930 . S
C122 C115 1.409 . S
C122 C121 1.362 . S
H123 C129 0.930 . S
H124 C132 0.930 . S
H125 C133 0.930 . S
H126 C134 0.930 . S
H127 C137 0.930 . S
H128 C138 0.930 . S
C129 H123 0.930 . S
C129 C130 1.355 . S
C129 C131 1.415 . S
C130 C129 1.355 . S
C130 C132 1.419 1_655 S
C131 C129 1.415 . S
C131 C136 1.425 1_655 S
C131 C138 1.409 . S
C132 H124 0.930 . S
C132 C130 1.419 1_455 S
C132 C133 1.362 . S
C133 H125 0.930 . S
C133 C132 1.362 . S
C133 C136 1.409 . S
C134 H126 0.930 . S
C134 C135 1.355 1_455 S
C134 C136 1.415 . S
C135 C134 1.355 1_655 S
C135 C137 1.419 . S
C136 C131 1.425 1_455 S
C136 C133 1.409 . S
C136 C134 1.415 . S
C137 H127 0.930 . S
C137 C135 1.419 . S
C137 C138 1.362 . S
C138 H128 0.930 . S
C138 C131 1.409 . S
C138 C137 1.362 . S
H139 C145 0.930 . S
H140 C148 0.930 1_545 S
H141 C149 0.930 . S
H142 C150 0.930 . S
H143 C153 0.930 . S
H144 C154 0.930 . S
C145 H139 0.930 . S
C145 C146 1.355 . S
C145 C147 1.415 . S
C146 C145 1.355 . S
C146 C148 1.420 . S
C147 C145 1.415 . S
C147 C152 1.426 . S
C147 C154 1.409 . S
C148 H140 0.930 1_565 S
C148 C146 1.420 . S
C148 C149 1.362 1_565 S
C149 H141 0.930 . S
C149 C148 1.362 1_545 S
C149 C152 1.409 1_545 S
C150 H142 0.930 . S
C150 C151 1.354 1_545 S
C150 C152 1.414 1_545 S
C151 C150 1.354 1_565 S
C151 C153 1.420 . S
C152 C147 1.426 . S
C152 C149 1.409 1_565 S
C152 C150 1.414 1_565 S
C153 H143 0.930 . S
C153 C151 1.420 . S
C153 C154 1.362 . S
C154 H144 0.930 . S
C154 C147 1.409 . S
C154 C153 1.362 . S
H155 C161 0.930 . S
H156 C164 0.930 . S
H157 C165 0.930 . S
H158 C166 0.930 . S
H159 C169 0.930 . S
H160 C170 0.930 . S
C161 H155 0.930 . S
C161 C162 1.355 1_655 S
C161 C163 1.415 . S
C162 C161 1.355 1_455 S
C162 C164 1.419 . S
C163 C161 1.415 . S
C163 C168 1.425 1_655 S
C163 C170 1.409 . S
C164 H156 0.930 . S
C164 C162 1.419 . S
C164 C165 1.362 . S
C165 H157 0.930 . S
C165 C164 1.362 . S
C165 C168 1.409 . S
C166 H158 0.930 . S
C166 C167 1.355 1_455 S
C166 C168 1.415 . S
C167 C166 1.355 1_655 S
C167 C169 1.419 . S
C168 C163 1.425 1_455 S
C168 C165 1.409 . S
C168 C166 1.415 . S
C169 H159 0.930 . S
C169 C167 1.419 . S
C169 C170 1.362 . S
C170 H160 0.930 . S
C170 C163 1.409 . S
C170 C169 1.362 . S
H171 C177 0.930 . S
H172 C180 0.930 . S
H173 C181 0.930 . S
H174 C182 0.930 . S
H175 C185 0.930 . S
H176 C186 0.930 . S
C177 H171 0.930 . S
C177 C178 1.355 . S
C177 C179 1.415 . S
C178 C177 1.355 . S
C178 C180 1.419 1_545 S
C179 C177 1.415 . S
C179 C184 1.425 . S
C179 C186 1.409 . S
C180 H172 0.930 . S
C180 C178 1.419 1_565 S
C180 C181 1.362 . S
C181 H173 0.930 . S
C181 C180 1.362 . S
C181 C184 1.409 1_565 S
C182 H174 0.930 . S
C182 C183 1.355 1_565 S
C182 C184 1.415 1_565 S
C183 C182 1.355 1_545 S
C183 C185 1.419 . S
C184 C179 1.425 . S
C184 C181 1.409 1_545 S
C184 C182 1.415 1_545 S
C185 H175 0.930 . S
C185 C183 1.419 . S
C185 C186 1.362 . S
C186 H176 0.930 . S
C186 C179 1.409 . S
C186 C185 1.362 . S
C66 C30 1.349 1_455 S
C71 C32 1.403 . S
C82 C1 1.482 . S
C87 C58 1.501 1_565 S
C98 C0 1.322 1_455 S
C103 C44 1.419 . S
C114 C29 1.520 . S
C119 C46 1.541 . S
C130 C19 1.323 1_655 S
C135 C31 1.421 1_655 S
C146 C20 1.496 . S
C151 C57 1.504 1_565 S
C167 C43 1.395 . S
C162 C10 1.364 . S
C178 C2 1.532 . S
C183 C45 1.545 . S
