# Generated by pormake.
# Topology nia, (6,6)-cn, num edge types: 1
# Building blocks:
#     Node 0, Type 0, BuildingBlock: MIFKUJ_clean_sbu_0, # of connection points: 6
#     Node 1, Type 0, BuildingBlock: MIFKUJ_clean_sbu_0, # of connection points: 6
#     Node 2, Type 1, BuildingBlock: MIDCAF_clean_sbu_0, # of connection points: 6
#     Node 3, Type 1, BuildingBlock: MIDCAF_clean_sbu_0, # of connection points: 6
#     Edge 4, Type (0, 1), BuildingBlock: AJUNOK_clean_linker_0, # of connection points: 2
#     Edge 5, Type (0, 1), BuildingBlock: AJUNOK_clean_linker_0, # of connection points: 2
#     Edge 6, Type (0, 1), BuildingBlock: AJUNOK_clean_linker_0, # of connection points: 2
#     Edge 7, Type (0, 1), BuildingBlock: AJUNOK_clean_linker_0, # of connection points: 2
#     Edge 8, Type (0, 1), BuildingBlock: AJUNOK_clean_linker_0, # of connection points: 2
#     Edge 9, Type (0, 1), BuildingBlock: AJUNOK_clean_linker_0, # of connection points: 2
#     Edge 10, Type (0, 1), BuildingBlock: AJUNOK_clean_linker_0, # of connection points: 2
#     Edge 11, Type (0, 1), BuildingBlock: AJUNOK_clean_linker_0, # of connection points: 2
#     Edge 12, Type (0, 1), BuildingBlock: AJUNOK_clean_linker_0, # of connection points: 2
#     Edge 13, Type (0, 1), BuildingBlock: AJUNOK_clean_linker_0, # of connection points: 2
#     Edge 14, Type (0, 1), BuildingBlock: AJUNOK_clean_linker_0, # of connection points: 2
#     Edge 15, Type (0, 1), BuildingBlock: AJUNOK_clean_linker_0, # of connection points: 2
# Relax obj value: 0.183
# Max RMSD: 0.254
# Mean RMSD: 0.187
data_MOF--net-nia--node1-MIFKUJ_clean_sbu_0--node2-MIDCAF_clean_sbu_0--edge1-AJUNOK_clean_linker_0
_symmetry_space_group_name_H-M    P1
_symmetry_Int_Tables_number       1
_symmetry_cell_setting            triclinic
loop_
_symmetry_equiv_pos_as_xyz
'x, y, z'
_cell_length_a     19.354386
_cell_length_b     19.236569
_cell_length_c     23.182327
_cell_angle_alpha  88.482573
_cell_angle_beta   87.494855
_cell_angle_gamma 128.9753
loop_
_atom_site_label
_atom_site_type_symbol
_atom_site_fract_x
_atom_site_fract_y
_atom_site_fract_z
_atom_type_partial_charge
Zn0 Zn 0.01866 0.92331 0.06987 0.0
Zn1 Zn -0.01721 0.05752 1.0069 0.0
C2 C 0.91896 0.82254 0.96515 0.0
O3 O 0.91125 0.88363 0.95067 0.0
C4 C 0.13045 0.21215 0.06168 0.0
O5 O 0.17316 0.22767 1.01128 0.0
O6 O 0.0741 0.88673 0.12159 0.0
O7 O 0.12504 0.03754 0.02761 0.0
O8 O 0.06888 0.0562 0.95393 0.0
C9 C 0.03507 0.80518 0.13705 0.0
O10 O 0.95431 0.74306 0.12136 0.0
O11 O 0.95616 0.82851 1.01094 0.0
C12 C 0.9482 0.14076 0.91172 0.0
O13 O 0.02551 0.17558 0.88429 0.0
O14 O 0.92555 0.09618 0.96006 0.0
O15 O 0.87557 0.9423 0.04791 0.0
O16 O 0.93343 0.92652 0.12158 0.0
O17 O 0.04828 0.14458 0.06932 0.0
C18 C 0.12964 0.0574 0.97404 0.0
C19 C 0.87285 0.92556 0.10169 0.0
Zn20 Zn 0.04784 0.96181 0.49714 0.0
Zn21 Zn 0.9478 0.01303 0.5679 0.0
C22 C 0.19966 0.08803 0.5695 0.0
O23 O 0.22646 0.1514 0.52942 0.0
C24 C 0.78337 0.88629 0.51781 0.0
O25 O 0.75934 0.85741 0.57266 0.0
O26 O 0.08726 0.90956 0.44335 0.0
O27 O 0.92709 0.85513 0.53249 0.0
O28 O 0.9443 0.91875 0.61375 0.0
C29 C 0.16827 0.95391 0.42445 0.0
O30 O 0.22684 0.03724 0.43802 0.0
O31 O 0.12982 0.00832 0.5636 0.0
C32 C 0.94613 0.13385 0.64 0.0
O33 O 0.0326 0.1868 0.62692 0.0
O34 O 0.89718 0.05589 0.62122 0.0
O35 O 0.06344 0.12353 0.52984 0.0
O36 O 0.05835 0.06025 0.45081 0.0
O37 O 0.8637 0.95427 0.50367 0.0
C38 C 0.91368 0.84871 0.58729 0.0
C39 C 0.07974 0.12885 0.47546 0.0
Zn40 Zn 0.37243 0.68902 0.1819 0.0
Zn41 Zn 0.30464 0.63441 0.38502 0.0
Zn42 Zn 0.34927 0.65822 0.28514 0.0
C43 C 0.48533 0.71233 0.37601 0.0
C44 C 0.21515 0.4674 0.36 0.0
O45 O 0.27864 0.70926 0.2539 0.0
O46 O 0.28031 0.69691 0.15953 0.0
C47 C 0.54011 0.79921 0.21418 0.0
O48 O 0.47938 0.72986 0.32333 0.0
O49 O 0.41544 0.66248 0.40956 0.0
O50 O 0.20002 0.50682 0.39443 0.0
O51 O 0.2713 0.51253 0.3155 0.0
O52 O 0.49778 0.79849 0.17403 0.0
O53 O 0.49652 0.74667 0.26028 0.0
O54 O 0.28464 0.5251 0.25121 0.0
O55 O 0.35123 0.57784 0.16334 0.0
C56 C 0.30295 0.51245 0.20046 0.0
O57 O 0.28964 0.72461 0.31106 0.0
O58 O 0.28894 0.72169 0.40635 0.0
C59 C 0.25354 0.71264 0.20386 0.0
C60 C 0.27819 0.74813 0.36001 0.0
Zn61 Zn 0.65234 0.30675 0.8883 0.0
Zn62 Zn 0.664 0.31437 0.67366 0.0
Zn63 Zn 0.65751 0.32558 0.77966 0.0
C64 C 0.7303 0.49061 0.69201 0.0
C65 C 0.48645 0.204 0.70482 0.0
O66 O 0.72425 0.26873 0.80899 0.0
O67 O 0.69811 0.24283 0.90406 0.0
C68 C 0.75645 0.4916 0.8574 0.0
O69 O 0.72727 0.46644 0.74511 0.0
O70 O 0.70264 0.43461 0.65399 0.0
O71 O 0.53775 0.21406 0.66394 0.0
O72 O 0.5186 0.24389 0.75182 0.0
O73 O 0.73296 0.43588 0.89928 0.0
O74 O 0.73235 0.46473 0.80637 0.0
O75 O 0.51334 0.2417 0.81376 0.0
O76 O 0.52541 0.23963 0.90796 0.0
C77 C 0.47735 0.21747 0.86617 0.0
O78 O 0.73012 0.27401 0.74925 0.0
O79 O 0.75099 0.29668 0.65392 0.0
C80 C 0.73147 0.23956 0.85743 0.0
C81 C 0.76337 0.27184 0.70032 0.0
C82 C 0.05851 0.69329 0.15659 0.0
C83 C 0.08539 0.77952 0.16341 0.0
C84 C 0.11183 0.67109 0.17248 0.0
C85 C 0.19289 0.73342 0.197 0.0
H86 H -0.00192 0.64379 0.13604 0.0
H87 H 0.09081 0.60544 0.16385 0.0
S88 S 0.28973 0.96475 0.22971 0.0
N89 N 0.19587 0.92539 0.20066 0.0
N90 N 0.29578 0.88281 0.23047 0.0
C91 C 0.21858 0.81807 0.20703 0.0
C92 C 0.16475 0.84126 0.19035 0.0
C93 C 0.31075 0.19515 0.6373 0.0
C94 C 0.25665 0.1083 0.6175 0.0
C95 C 0.37847 0.22218 0.67382 0.0
C96 C 0.39528 0.16378 0.69098 0.0
H97 H 0.30408 0.24419 0.62183 0.0
H98 H 0.42344 0.29182 0.68395 0.0
S99 S 0.26633 0.92661 0.65705 0.0
N100 N 0.21792 0.96086 0.6235 0.0
N101 N 0.34792 0.01346 0.69018 0.0
C102 C 0.33748 0.07497 0.67529 0.0
C103 C 0.26725 0.04668 0.63908 0.0
C104 C 0.12611 0.28421 0.14924 0.0
C105 C 0.17574 0.27735 0.10681 0.0
C106 C 0.16849 0.3562 0.18529 0.0
C107 C 0.26167 0.42275 0.18031 0.0
H108 H 0.05392 0.23743 0.15191 0.0
H109 H 0.12782 0.36393 0.21338 0.0
S110 S 0.42244 0.42569 0.08493 0.0
N111 N 0.32366 0.33597 0.06854 0.0
N112 N 0.40262 0.47043 0.13612 0.0
C113 C 0.31202 0.41156 0.14224 0.0
C114 C 0.26924 0.33908 0.10546 0.0
C115 C 0.9446 0.26112 0.65205 0.0
C116 C 0.90484 0.17078 0.66567 0.0
C117 C 0.90005 0.2947 0.66661 0.0
C118 C 0.81541 0.23999 0.69675 0.0
H119 H 0.00817 0.30492 0.62677 0.0
H120 H 0.93056 0.36313 0.6522 0.0
S121 S 0.68764 0.00247 0.74945 0.0
N122 N 0.77931 0.0294 0.71562 0.0
N123 N 0.69645 0.09365 0.74404 0.0
C124 C 0.77749 0.15146 0.71422 0.0
C125 C 0.82209 0.11657 0.69844 0.0
C126 C 0.75391 0.83463 0.18378 0.0
C127 C 0.79839 0.90536 0.14036 0.0
C128 C 0.67373 0.80579 0.21334 0.0
C129 C 0.63657 0.84764 0.20068 0.0
H130 H 0.77767 0.79746 0.19204 0.0
H131 H 0.63719 0.74613 0.24262 0.0
S132 S 0.73933 0.04926 0.10091 0.0
N133 N 0.80771 0.0257 0.09347 0.0
N134 N 0.6588 0.97288 0.14933 0.0
C135 C 0.686 0.9244 0.16198 0.0
C136 C 0.76636 0.95279 0.13159 0.0
C137 C 0.88201 0.746 0.67273 0.0
C138 C 0.85918 0.75925 0.6189 0.0
C139 C 0.8372 0.65893 0.69869 0.0
C140 C 0.76718 0.58296 0.6721 0.0
H141 H 0.93778 0.8027 0.69325 0.0
H142 H 0.8605 0.651 0.73801 0.0
S143 S 0.67254 0.58388 0.53606 0.0
N144 N 0.75681 0.6903 0.54323 0.0
N145 N 0.66987 0.52851 0.59284 0.0
C146 C 0.73969 0.59666 0.62059 0.0
C147 C 0.78643 0.68431 0.59379 0.0
C148 C 0.28661 0.94038 0.4026 0.0
C149 C 0.19866 0.9075 0.39714 0.0
C150 C 0.31336 0.89028 0.3868 0.0
C151 C 0.25398 0.80666 0.36369 0.0
H152 H 0.3338 0.00275 0.42244 0.0
H153 H 0.37999 0.91542 0.39501 0.0
S154 S 0.02043 0.69541 0.33343 0.0
N155 N 0.05472 0.78938 0.36178 0.0
N156 N 0.10602 0.69567 0.33191 0.0
C157 C 0.16785 0.77538 0.35443 0.0
C158 C 0.14003 0.82589 0.37109 0.0
C159 C 0.25968 0.06187 0.9554 0.0
C160 C 0.21027 0.08808 0.93727 0.0
C161 C 0.34267 0.09839 0.92788 0.0
C162 C 0.38039 0.16299 0.88099 0.0
H163 H 0.2357 0.01507 0.99279 0.0
H164 H 0.38005 0.07948 0.94568 0.0
S165 S 0.27414 0.24667 0.81165 0.0
N166 N 0.20095 0.1758 0.8652 0.0
N167 N 0.35892 0.24594 0.81396 0.0
C168 C 0.32923 0.18502 0.85929 0.0
C169 C 0.24367 0.14722 0.88737 0.0
C170 C 0.10083 0.21877 0.3853 0.0
C171 C 0.12398 0.21546 0.44169 0.0
C172 C 0.13375 0.30102 0.35643 0.0
C173 C 0.19146 0.3819 0.38305 0.0
H174 H 0.05356 0.15724 0.36465 0.0
H175 H 0.11071 0.30079 0.31469 0.0
S176 S 0.28306 0.4107 0.52583 0.0
N177 N 0.21518 0.30138 0.5199 0.0
N178 N 0.27819 0.45464 0.46558 0.0
C179 C 0.21948 0.37952 0.43752 0.0
C180 C 0.18543 0.29664 0.46692 0.0
C181 C 0.92307 0.23307 0.85172 0.0
C182 C 0.88866 0.15716 0.88913 0.0
C183 C 0.86987 0.25668 0.83776 0.0
C184 C 0.7807 0.20465 0.86043 0.0
H185 H -0.00735 0.27722 0.83575 0.0
H186 H 0.90006 0.31858 0.81196 0.0
S187 S 0.65401 0.99062 0.95042 0.0
N188 N 0.7559 0.02333 0.94127 0.0
N189 N 0.65715 0.06848 0.91534 0.0
C190 C 0.74389 0.12527 0.89397 0.0
C191 C 0.7975 0.10117 0.90813 0.0
C192 C 0.63869 0.75172 0.48825 0.0
C193 C 0.71637 0.84007 0.47431 0.0
C194 C 0.56827 0.70859 0.45254 0.0
C195 C 0.57091 0.75259 0.40189 0.0
H196 H 0.63048 0.71619 0.52834 0.0
H197 H 0.5088 0.64148 0.46676 0.0
S198 S 0.76268 0.98169 0.34261 0.0
N199 N 0.79609 0.96768 0.40305 0.0
N200 N 0.66075 0.88746 0.33706 0.0
C201 C 0.65028 0.83906 0.38522 0.0
C202 C 0.72356 0.88274 0.4213 0.0
C203 C 0.91542 0.69661 0.93642 0.0
C204 C 0.8857 0.74645 0.92852 0.0
C205 C 0.87865 0.61833 0.90812 0.0
C206 C 0.81065 0.58638 0.87067 0.0
H207 H 0.96539 0.71624 0.96639 0.0
H208 H 0.90019 0.57955 0.91823 0.0
S209 S 0.7149 0.69581 0.83011 0.0
N210 N 0.78935 0.76226 0.87602 0.0
N211 N 0.719 0.6131 0.82366 0.0
C212 C 0.78417 0.63816 0.85909 0.0
C213 C 0.82202 0.71873 0.88787 0.0
loop_
_geom_bond_atom_site_label_1
_geom_bond_atom_site_label_2
_geom_bond_distance
_geom_bond_site_symmetry_2
_ccdc_geom_bond_type
Zn0 O6 1.969 . S
Zn0 O7 1.965 1_565 S
Zn0 O11 2.024 1_454 S
Zn0 O16 1.969 1_455 S
Zn1 O8 1.969 . S
Zn1 O14 1.969 1_455 S
Zn1 O15 1.965 1_446 S
Zn1 O17 2.024 1_556 S
C2 O3 1.240 . S
C2 O11 1.058 . S
O3 C2 1.240 . S
C4 O5 1.229 . S
C4 O17 1.058 . S
O5 C4 1.229 . S
O6 Zn0 1.969 . S
O6 C9 1.267 . S
O7 Zn0 1.965 1_545 S
O7 C18 1.260 1_554 S
O8 Zn1 1.969 . S
O8 C18 1.258 . S
C9 O6 1.267 . S
C9 O10 1.228 . S
O10 C9 1.228 . S
O11 Zn0 2.024 1_656 S
O11 C2 1.058 . S
C12 O13 1.228 . S
C12 O14 1.267 . S
O13 C12 1.228 . S
O14 Zn1 1.969 1_655 S
O14 C12 1.267 . S
O15 Zn1 1.965 1_664 S
O15 C19 1.260 . S
O16 Zn0 1.969 1_655 S
O16 C19 1.258 . S
O17 Zn1 2.024 1_554 S
O17 C4 1.058 . S
C18 O7 1.260 1_556 S
C18 O8 1.258 . S
C19 O15 1.260 . S
C19 O16 1.258 . S
Zn20 O26 1.969 1_545 S
Zn20 O27 1.965 1_545 S
Zn20 O31 2.024 . S
Zn20 O36 1.969 . S
Zn21 O28 1.969 . S
Zn21 O34 1.969 1_565 S
Zn21 O35 1.965 1_665 S
Zn21 O37 2.024 . S
C22 O23 1.229 . S
C22 O31 1.058 . S
O23 C22 1.229 . S
C24 O25 1.229 . S
C24 O37 1.058 . S
O25 C24 1.229 . S
O26 Zn20 1.969 1_565 S
O26 C29 1.267 . S
O27 Zn20 1.965 1_565 S
O27 C38 1.260 1_455 S
O28 Zn21 1.969 . S
O28 C38 1.258 . S
C29 O26 1.267 . S
C29 O30 1.228 . S
O30 C29 1.228 . S
O31 Zn20 2.024 . S
O31 C22 1.058 . S
C32 O33 1.228 . S
C32 O34 1.267 . S
O33 C32 1.228 . S
O34 Zn21 1.969 1_545 S
O34 C32 1.267 . S
O35 Zn21 1.965 1_445 S
O35 C39 1.260 . S
O36 Zn20 1.969 . S
O36 C39 1.258 . S
O37 Zn21 2.024 . S
O37 C24 1.058 . S
C38 O27 1.260 1_655 S
C38 O28 1.258 . S
C39 O35 1.260 . S
C39 O36 1.258 . S
Zn40 O46 1.920 . S
Zn40 O52 1.898 . S
Zn40 O55 1.905 . S
Zn41 O49 1.905 . S
Zn41 O50 1.898 . S
Zn41 O58 1.920 . S
Zn42 O45 2.080 . S
Zn42 O48 2.114 . S
Zn42 O51 2.120 . S
Zn42 O53 2.120 . S
Zn42 O54 2.114 . S
Zn42 O57 2.080 . S
C43 O48 1.166 . S
C43 O49 1.182 . S
C44 O50 1.167 . S
C44 O51 1.299 . S
O45 Zn42 2.080 . S
O45 C59 1.305 . S
O46 Zn40 1.920 . S
O46 C59 1.234 . S
C47 O52 1.167 . S
C47 O53 1.299 . S
O48 Zn42 2.114 . S
O48 C43 1.166 . S
O49 Zn41 1.905 . S
O49 C43 1.182 . S
O50 Zn41 1.898 . S
O50 C44 1.167 . S
O51 Zn42 2.120 . S
O51 C44 1.299 . S
O52 Zn40 1.898 . S
O52 C47 1.167 . S
O53 Zn42 2.120 . S
O53 C47 1.299 . S
O54 Zn42 2.114 . S
O54 C56 1.166 . S
O55 Zn40 1.905 . S
O55 C56 1.182 . S
C56 O54 1.166 . S
C56 O55 1.182 . S
O57 Zn42 2.080 . S
O57 C60 1.305 . S
O58 Zn41 1.920 . S
O58 C60 1.234 . S
C59 O45 1.305 . S
C59 O46 1.234 . S
C60 O57 1.305 . S
C60 O58 1.234 . S
Zn61 O67 1.920 . S
Zn61 O73 1.898 . S
Zn61 O76 1.905 . S
Zn62 O70 1.905 . S
Zn62 O71 1.898 . S
Zn62 O79 1.920 . S
Zn63 O66 2.080 . S
Zn63 O69 2.114 . S
Zn63 O72 2.120 . S
Zn63 O74 2.120 . S
Zn63 O75 2.114 . S
Zn63 O78 2.080 . S
C64 O69 1.166 . S
C64 O70 1.182 . S
C65 O71 1.167 . S
C65 O72 1.299 . S
O66 Zn63 2.080 . S
O66 C80 1.305 . S
O67 Zn61 1.920 . S
O67 C80 1.234 . S
C68 O73 1.167 . S
C68 O74 1.299 . S
O69 Zn63 2.114 . S
O69 C64 1.166 . S
O70 Zn62 1.905 . S
O70 C64 1.182 . S
O71 Zn62 1.898 . S
O71 C65 1.167 . S
O72 Zn63 2.120 . S
O72 C65 1.299 . S
O73 Zn61 1.898 . S
O73 C68 1.167 . S
O74 Zn63 2.120 . S
O74 C68 1.299 . S
O75 Zn63 2.114 . S
O75 C77 1.166 . S
O76 Zn61 1.905 . S
O76 C77 1.182 . S
C77 O75 1.166 . S
C77 O76 1.182 . S
O78 Zn63 2.080 . S
O78 C81 1.305 . S
O79 Zn62 1.920 . S
O79 C81 1.234 . S
C80 O66 1.305 . S
C80 O67 1.234 . S
C81 O78 1.305 . S
C81 O79 1.234 . S
C82 C83 1.369 . S
C82 C84 1.419 . S
C82 H86 0.930 . S
C83 C82 1.369 . S
C83 C92 1.429 . S
C84 C82 1.419 . S
C84 C85 1.363 . S
C84 H87 0.929 . S
C85 C84 1.363 . S
C85 C91 1.428 . S
H86 C82 0.930 . S
H87 C84 0.929 . S
S88 N89 1.613 . S
S88 N90 1.610 . S
N89 S88 1.613 . S
N89 C92 1.350 . S
N90 S88 1.610 . S
N90 C91 1.351 . S
C91 C85 1.428 . S
C91 N90 1.351 . S
C91 C92 1.434 . S
C92 C83 1.429 . S
C92 N89 1.350 . S
C92 C91 1.434 . S
C93 C94 1.369 . S
C93 C95 1.419 . S
C93 H97 0.930 . S
C94 C93 1.369 . S
C94 C103 1.429 . S
C95 C93 1.419 . S
C95 C96 1.363 . S
C95 H98 0.929 . S
C96 C95 1.363 . S
C96 C102 1.428 . S
H97 C93 0.930 . S
H98 C95 0.929 . S
S99 N100 1.613 . S
S99 N101 1.610 1_565 S
N100 S99 1.613 . S
N100 C103 1.350 1_565 S
N101 S99 1.610 1_545 S
N101 C102 1.351 . S
C102 C96 1.428 . S
C102 N101 1.351 . S
C102 C103 1.434 . S
C103 C94 1.429 . S
C103 N100 1.350 1_545 S
C103 C102 1.434 . S
C104 C105 1.369 . S
C104 C106 1.419 . S
C104 H108 0.930 . S
C105 C104 1.369 . S
C105 C114 1.429 . S
C106 C104 1.419 . S
C106 C107 1.363 . S
C106 H109 0.929 . S
C107 C106 1.363 . S
C107 C113 1.428 . S
H108 C104 0.930 . S
H109 C106 0.929 . S
S110 N111 1.613 . S
S110 N112 1.610 . S
N111 S110 1.613 . S
N111 C114 1.350 . S
N112 S110 1.610 . S
N112 C113 1.351 . S
C113 C107 1.428 . S
C113 N112 1.351 . S
C113 C114 1.434 . S
C114 C105 1.429 . S
C114 N111 1.350 . S
C114 C113 1.434 . S
C115 C116 1.369 . S
C115 C117 1.419 . S
C115 H119 0.930 . S
C116 C115 1.369 . S
C116 C125 1.429 . S
C117 C115 1.419 . S
C117 C118 1.363 . S
C117 H120 0.929 . S
C118 C117 1.363 . S
C118 C124 1.428 . S
H119 C115 0.930 . S
H120 C117 0.929 . S
S121 N122 1.613 . S
S121 N123 1.610 . S
N122 S121 1.613 . S
N122 C125 1.350 . S
N123 S121 1.610 . S
N123 C124 1.351 . S
C124 C118 1.428 . S
C124 N123 1.351 . S
C124 C125 1.434 . S
C125 C116 1.429 . S
C125 N122 1.350 . S
C125 C124 1.434 . S
C126 C127 1.369 . S
C126 C128 1.419 . S
C126 H130 0.930 . S
C127 C126 1.369 . S
C127 C136 1.429 . S
C128 C126 1.419 . S
C128 C129 1.363 . S
C128 H131 0.929 . S
C129 C128 1.363 . S
C129 C135 1.428 . S
H130 C126 0.930 . S
H131 C128 0.929 . S
S132 N133 1.613 . S
S132 N134 1.610 . S
N133 S132 1.613 . S
N133 C136 1.350 1_545 S
N134 S132 1.610 . S
N134 C135 1.351 1_545 S
C135 C129 1.428 . S
C135 N134 1.351 1_565 S
C135 C136 1.434 . S
C136 C127 1.429 . S
C136 N133 1.350 1_565 S
C136 C135 1.434 . S
C137 C138 1.369 . S
C137 C139 1.419 . S
C137 H141 0.930 . S
C138 C137 1.369 . S
C138 C147 1.429 . S
C139 C137 1.419 . S
C139 C140 1.363 . S
C139 H142 0.929 . S
C140 C139 1.363 . S
C140 C146 1.428 . S
H141 C137 0.930 . S
H142 C139 0.929 . S
S143 N144 1.613 . S
S143 N145 1.610 . S
N144 S143 1.613 . S
N144 C147 1.350 . S
N145 S143 1.610 . S
N145 C146 1.351 . S
C146 C140 1.428 . S
C146 N145 1.351 . S
C146 C147 1.434 . S
C147 C138 1.429 . S
C147 N144 1.350 . S
C147 C146 1.434 . S
C148 C149 1.369 . S
C148 C150 1.419 . S
C148 H152 0.930 . S
C149 C148 1.369 . S
C149 C158 1.429 . S
C150 C148 1.419 . S
C150 C151 1.363 . S
C150 H153 0.929 . S
C151 C150 1.363 . S
C151 C157 1.428 . S
H152 C148 0.930 . S
H153 C150 0.929 . S
S154 N155 1.613 . S
S154 N156 1.610 . S
N155 S154 1.613 . S
N155 C158 1.350 . S
N156 S154 1.610 . S
N156 C157 1.351 . S
C157 C151 1.428 . S
C157 N156 1.351 . S
C157 C158 1.434 . S
C158 C149 1.429 . S
C158 N155 1.350 . S
C158 C157 1.434 . S
C159 C160 1.369 . S
C159 C161 1.419 . S
C159 H163 0.930 . S
C160 C159 1.369 . S
C160 C169 1.429 . S
C161 C159 1.419 . S
C161 C162 1.363 . S
C161 H164 0.929 . S
C162 C161 1.363 . S
C162 C168 1.428 . S
H163 C159 0.930 . S
H164 C161 0.929 . S
S165 N166 1.613 . S
S165 N167 1.610 . S
N166 S165 1.613 . S
N166 C169 1.350 . S
N167 S165 1.610 . S
N167 C168 1.351 . S
C168 C162 1.428 . S
C168 N167 1.351 . S
C168 C169 1.434 . S
C169 C160 1.429 . S
C169 N166 1.350 . S
C169 C168 1.434 . S
C170 C171 1.369 . S
C170 C172 1.419 . S
C170 H174 0.930 . S
C171 C170 1.369 . S
C171 C180 1.429 . S
C172 C170 1.419 . S
C172 C173 1.363 . S
C172 H175 0.929 . S
C173 C172 1.363 . S
C173 C179 1.428 . S
H174 C170 0.930 . S
H175 C172 0.929 . S
S176 N177 1.613 . S
S176 N178 1.610 . S
N177 S176 1.613 . S
N177 C180 1.350 . S
N178 S176 1.610 . S
N178 C179 1.351 . S
C179 C173 1.428 . S
C179 N178 1.351 . S
C179 C180 1.434 . S
C180 C171 1.429 . S
C180 N177 1.350 . S
C180 C179 1.434 . S
C181 C182 1.369 . S
C181 C183 1.419 . S
C181 H185 0.930 . S
C182 C181 1.369 . S
C182 C191 1.429 . S
C183 C181 1.419 . S
C183 C184 1.363 . S
C183 H186 0.929 . S
C184 C183 1.363 . S
C184 C190 1.428 . S
H185 C181 0.930 . S
H186 C183 0.929 . S
S187 N188 1.613 1_565 S
S187 N189 1.610 1_565 S
N188 S187 1.613 1_545 S
N188 C191 1.350 . S
N189 S187 1.610 1_545 S
N189 C190 1.351 . S
C190 C184 1.428 . S
C190 N189 1.351 . S
C190 C191 1.434 . S
C191 C182 1.429 . S
C191 N188 1.350 . S
C191 C190 1.434 . S
C192 C193 1.369 . S
C192 C194 1.419 . S
C192 H196 0.930 . S
C193 C192 1.369 . S
C193 C202 1.429 . S
C194 C192 1.419 . S
C194 C195 1.363 . S
C194 H197 0.929 . S
C195 C194 1.363 . S
C195 C201 1.428 . S
H196 C192 0.930 . S
H197 C194 0.929 . S
S198 N199 1.613 . S
S198 N200 1.610 . S
N199 S198 1.613 . S
N199 C202 1.350 . S
N200 S198 1.610 . S
N200 C201 1.351 . S
C201 C195 1.428 . S
C201 N200 1.351 . S
C201 C202 1.434 . S
C202 C193 1.429 . S
C202 N199 1.350 . S
C202 C201 1.434 . S
C203 C204 1.369 . S
C203 C205 1.419 . S
C203 H207 0.930 1_655 S
C204 C203 1.369 . S
C204 C213 1.429 . S
C205 C203 1.419 . S
C205 C206 1.363 . S
C205 H208 0.929 . S
C206 C205 1.363 . S
C206 C212 1.428 . S
H207 C203 0.930 1_455 S
H208 C205 0.929 . S
S209 N210 1.613 . S
S209 N211 1.610 . S
N210 S209 1.613 . S
N210 C213 1.350 . S
N211 S209 1.610 . S
N211 C212 1.351 . S
C212 C206 1.428 . S
C212 N211 1.351 . S
C212 C213 1.434 . S
C213 C204 1.429 . S
C213 N210 1.350 . S
C213 C212 1.434 . S
C83 C9 1.444 . S
C85 C59 1.345 . S
C94 C22 1.275 . S
C96 C65 1.172 . S
C105 C4 1.393 . S
C107 C56 1.241 . S
C116 C32 1.614 . S
C118 C81 1.457 . S
C127 C19 1.859 . S
C129 C47 1.691 . S
C140 C64 1.647 . S
C138 C38 1.740 . S
C149 C29 1.442 . S
C151 C60 1.342 . S
C162 C77 1.654 . S
C160 C18 1.744 . S
C173 C44 1.682 . S
C171 C39 1.856 . S
C184 C80 1.467 . S
C182 C12 1.613 . S
C195 C43 1.248 . S
C193 C24 1.397 . S
C206 C68 1.160 . S
C204 C2 1.275 . S
