# Generated by pormake.
# Topology nia, (6,6)-cn, num edge types: 1
# Building blocks:
#     Node 0, Type 0, BuildingBlock: BETDEL_clean_sbu_0, # of connection points: 6
#     Node 1, Type 0, BuildingBlock: BETDEL_clean_sbu_0, # of connection points: 6
#     Node 2, Type 1, BuildingBlock: MIDCAF_clean_sbu_0, # of connection points: 6
#     Node 3, Type 1, BuildingBlock: MIDCAF_clean_sbu_0, # of connection points: 6
#     Edge 4, Type (0, 1), BuildingBlock: AJUNOK_clean_linker_0, # of connection points: 2
#     Edge 5, Type (0, 1), BuildingBlock: AJUNOK_clean_linker_0, # of connection points: 2
#     Edge 6, Type (0, 1), BuildingBlock: AJUNOK_clean_linker_0, # of connection points: 2
#     Edge 7, Type (0, 1), BuildingBlock: AJUNOK_clean_linker_0, # of connection points: 2
#     Edge 8, Type (0, 1), BuildingBlock: AJUNOK_clean_linker_0, # of connection points: 2
#     Edge 9, Type (0, 1), BuildingBlock: AJUNOK_clean_linker_0, # of connection points: 2
#     Edge 10, Type (0, 1), BuildingBlock: AJUNOK_clean_linker_0, # of connection points: 2
#     Edge 11, Type (0, 1), BuildingBlock: AJUNOK_clean_linker_0, # of connection points: 2
#     Edge 12, Type (0, 1), BuildingBlock: AJUNOK_clean_linker_0, # of connection points: 2
#     Edge 13, Type (0, 1), BuildingBlock: AJUNOK_clean_linker_0, # of connection points: 2
#     Edge 14, Type (0, 1), BuildingBlock: AJUNOK_clean_linker_0, # of connection points: 2
#     Edge 15, Type (0, 1), BuildingBlock: AJUNOK_clean_linker_0, # of connection points: 2
# Relax obj value: 0.222
# Max RMSD: 0.247
# Mean RMSD: 0.209
data_MOF--net-nia--node1-BETDEL_clean_sbu_0--node2-MIDCAF_clean_sbu_0--edge1-AJUNOK_clean_linker_0
_symmetry_space_group_name_H-M    P1
_symmetry_Int_Tables_number       1
_symmetry_cell_setting            triclinic
loop_
_symmetry_equiv_pos_as_xyz
'x, y, z'
_cell_length_a     18.197055
_cell_length_b     19.349617
_cell_length_c     22.312889
_cell_angle_alpha  80.1972
_cell_angle_beta   94.042149
_cell_angle_gamma 125.93168
loop_
_atom_site_label
_atom_site_type_symbol
_atom_site_fract_x
_atom_site_fract_y
_atom_site_fract_z
_atom_type_partial_charge
Dy0 Dy 0.03105 0.04053 0.0901 0.0
C1 C 0.86672 0.77537 0.9513 0.0
C2 C 0.08387 0.16239 0.16175 0.0
Dy3 Dy 0.95809 0.921 1.00348 0.0
O4 O 0.13799 0.14823 0.1406 0.0
O5 O 0.0036 0.11292 0.14155 0.0
O6 O 0.92867 0.93149 0.15921 0.0
O7 O 0.89106 0.93893 0.06921 0.0
C8 C 0.86355 0.89598 0.12186 0.0
C9 C 0.12663 0.05977 0.96843 0.0
O10 O 0.89441 -0.01047 0.97309 0.0
O11 O 0.01062 0.11246 1.00822 0.0
O12 O 0.90851 0.85334 0.92143 0.0
O13 O 0.87354 0.77724 1.00926 0.0
O14 O 0.06312 0.01672 0.93155 0.0
O15 O 0.09915 0.02293 1.0228 0.0
O16 O 0.09379 -0.02605 0.13003 0.0
O17 O 0.00504 0.86062 0.07643 0.0
C18 C 0.93968 0.07332 0.97347 0.0
C19 C 0.06388 0.89655 0.11935 0.0
Dy20 Dy 0.95554 0.00563 0.58746 0.0
C21 C 0.10996 0.89598 0.44761 0.0
C22 C 0.9013 0.07859 0.65165 0.0
Dy23 Dy 0.05068 0.9616 0.51433 0.0
O24 O 0.85418 -0.00228 0.64578 0.0
O25 O -0.02134 0.1204 0.62189 0.0
O26 O 0.83873 0.86597 0.60711 0.0
O27 O 0.97066 0.89942 0.59941 0.0
C28 C 0.88752 0.83756 0.60511 0.0
C29 C 0.1138 0.1288 0.49302 0.0
O30 O 0.92252 0.91353 0.46308 0.0
O31 O 0.88198 -0.00856 0.50063 0.0
O32 O 0.15823 -0.02634 0.46052 0.0
O33 O 0.02878 0.85304 0.47201 0.0
O34 O 0.16474 0.10241 0.49339 0.0
O35 O 0.03176 0.06527 0.5007 0.0
O36 O 0.08292 0.0492 0.63985 0.0
O37 O 0.11933 0.96842 0.60223 0.0
C38 C 0.87021 0.94042 0.46238 0.0
C39 C 0.13226 0.01888 0.64115 0.0
Zn40 Zn 0.30082 0.63973 0.18426 0.0
Zn41 Zn 0.33831 0.65437 0.41299 0.0
Zn42 Zn 0.3321 0.65282 0.29786 0.0
C43 C 0.51805 0.76016 0.36518 0.0
C44 C 0.25482 0.48583 0.40668 0.0
O45 O 0.26073 0.71292 0.25952 0.0
O46 O 0.24152 0.6976 0.16239 0.0
C47 C 0.48911 0.72867 0.19698 0.0
O48 O 0.47977 0.73306 0.31526 0.0
O49 O 0.47075 0.73723 0.41284 0.0
O50 O 0.28597 0.53335 0.44726 0.0
O51 O 0.26399 0.51896 0.35 0.0
O52 O 0.42863 0.69909 0.15795 0.0
O53 O 0.46715 0.72085 0.25274 0.0
O54 O 0.2538 0.51402 0.28821 0.0
O55 O 0.22252 0.51393 0.19056 0.0
C56 C 0.21605 0.47338 0.24273 0.0
O57 O 0.27141 0.71728 0.32144 0.0
O58 O 0.26938 0.70058 0.42215 0.0
C59 C 0.23159 0.72403 0.20687 0.0
C60 C 0.25159 0.7278 0.37195 0.0
Zn61 Zn 0.68678 0.30586 0.95453 0.0
Zn62 Zn 0.65889 0.30685 0.68548 0.0
Zn63 Zn 0.66977 0.31759 0.79696 0.0
C64 C 0.73377 0.47519 0.68087 0.0
C65 C 0.48248 0.193 0.7392 0.0
O66 O 0.74733 0.26646 0.84164 0.0
O67 O 0.75185 0.25552 0.94359 0.0
C68 C 0.74865 0.4681 0.85361 0.0
O69 O 0.73359 0.44861 0.73817 0.0
O70 O 0.69552 0.42196 0.64403 0.0
O71 O 0.52825 0.21069 0.6919 0.0
O72 O 0.52211 0.23111 0.78538 0.0
O73 O 0.72422 0.40405 0.8933 0.0
O74 O 0.73916 0.45594 0.79849 0.0
O75 O 0.53742 0.24946 0.84946 0.0
O76 O 0.55278 0.23682 0.95108 0.0
C77 C 0.50423 0.22526 0.90482 0.0
O78 O 0.73749 0.2573 0.77806 0.0
O79 O 0.74265 0.27583 0.67754 0.0
C80 C 0.77249 0.24686 0.89371 0.0
C81 C 0.76246 0.25084 0.72783 0.0
C82 C 0.05978 0.76383 0.14578 0.0
C83 C 0.10122 0.85054 0.152 0.0
C84 C 0.10014 0.72182 0.16756 0.0
C85 C 0.18294 0.7643 0.19702 0.0
H86 H -0.00271 0.72879 0.12173 0.0
H87 H 0.06802 0.65645 0.15911 0.0
S88 S 0.31734 -0.01096 0.22842 0.0
N89 N 0.22804 -0.02413 0.19313 0.0
N90 N 0.30377 0.89594 0.23375 0.0
C91 C 0.22292 0.84903 0.2068 0.0
C92 C 0.18197 0.89238 0.1844 0.0
C93 C 0.24483 0.12331 0.70884 0.0
C94 C 0.2095 0.04857 0.68261 0.0
C95 C 0.33062 0.16552 0.7348 0.0
C96 C 0.38314 0.13381 0.73578 0.0
H97 H 0.20966 0.15352 0.70495 0.0
H98 H 0.35919 0.22714 0.74918 0.0
S99 S 0.31398 0.9309 0.68603 0.0
N100 N 0.22791 0.93701 0.66927 0.0
N101 N 0.38886 0.01705 0.7175 0.0
C102 C 0.34451 0.05443 0.71601 0.0
C103 C 0.2576 0.01148 0.68962 0.0
C104 C 0.1978 0.27853 0.22093 0.0
C105 C 0.10976 0.22923 0.19881 0.0
C106 C 0.22879 0.35317 0.24534 0.0
C107 C 0.17287 0.38072 0.24736 0.0
H108 H 0.24484 0.26273 0.21566 0.0
H109 H 0.2996 0.39423 0.25651 0.0
S110 S 0.93172 0.26518 0.20692 0.0
N111 N 0.96222 0.20496 0.19076 0.0
N112 N 0.02254 0.34739 0.23397 0.0
C113 C 0.08214 0.3271 0.2316 0.0
C114 C 0.04997 0.25056 0.20787 0.0
C115 C 0.92699 0.20437 0.69217 0.0
C116 C 0.86782 0.11783 0.68245 0.0
C117 C 0.89374 0.24584 0.71364 0.0
C118 C 0.80048 0.20191 0.72623 0.0
H119 H -0.00121 0.24141 0.68057 0.0
H120 H 0.94032 0.31403 0.71669 0.0
S121 S 0.61772 -0.02495 0.70968 0.0
N122 N 0.71181 -0.01096 0.68971 0.0
N123 N 0.64996 0.06789 0.72826 0.0
C124 C 0.74147 0.11469 0.71923 0.0
C125 C 0.77503 0.07228 0.69795 0.0
C126 C 0.74663 0.86638 0.19392 0.0
C127 C 0.76813 0.84811 0.14217 0.0
C128 C 0.65636 0.82906 0.21044 0.0
C129 C 0.58425 0.76933 0.17762 0.0
H130 H 0.79999 0.91262 0.22047 0.0
H131 H 0.64315 0.84908 0.24809 0.0
S132 S 0.60563 0.70083 1.03769 0.0
N133 N 0.7114 0.76988 0.05656 0.0
N134 N 0.54107 0.69447 0.08991 0.0
C135 C 0.60517 0.75036 0.12566 0.0
C136 C 0.69729 0.79069 0.10765 0.0
C137 C 0.90357 0.71913 0.64864 0.0
C138 C 0.85085 0.74522 0.61885 0.0
C139 C 0.86534 0.6312 0.66881 0.0
C140 C 0.77419 0.56701 0.65824 0.0
H141 H -0.02654 0.76696 0.65871 0.0
H142 H 0.90689 0.61331 0.69325 0.0
S143 S 0.61052 0.60133 0.57731 0.0
N144 N 0.70468 0.69974 0.57685 0.0
N145 N 0.63404 0.53472 0.61303 0.0
C146 C 0.72234 0.59211 0.62595 0.0
C147 C 0.76045 0.6813 0.60664 0.0
C148 C 0.08667 0.77479 0.40291 0.0
C149 C 0.14536 0.85971 0.41575 0.0
C150 C 0.12109 0.73421 0.38199 0.0
C151 C 0.21493 0.77758 0.37325 0.0
H152 H 0.01421 0.73791 0.41205 0.0
H153 H 0.07468 0.66683 0.37664 0.0
S154 S 0.39642 0.00274 0.39429 0.0
N155 N 0.30139 -0.0118 0.41266 0.0
N156 N 0.36544 0.91079 0.37472 0.0
C157 C 0.27367 0.86399 0.38205 0.0
C158 C 0.23894 0.90556 0.40283 0.0
C159 C 0.24703 0.08221 0.90331 0.0
C160 C 0.22272 0.10818 0.94901 0.0
C161 C 0.33836 0.12101 0.88834 0.0
C162 C 0.40822 0.1888 0.91702 0.0
H163 H 0.19522 0.02876 0.88089 0.0
H164 H 0.35426 0.09496 0.85647 0.0
S165 S 0.38014 0.2845 1.03672 0.0
N166 N 0.27527 0.20667 1.02177 0.0
N167 N 0.44714 0.28313 0.9914 0.0
C168 C 0.38464 0.21709 0.96151 0.0
C169 C 0.29179 0.17609 0.97788 0.0
C170 C 0.23647 0.28583 0.47987 0.0
C171 C 0.14625 0.21868 0.47036 0.0
C172 C 0.27081 0.37211 0.45828 0.0
C173 C 0.21687 0.394 0.42503 0.0
H174 H 0.28058 0.27167 0.50493 0.0
H175 H 0.34032 0.42225 0.46753 0.0
S176 S -0.02337 0.24239 0.38698 0.0
N177 N 0.00327 0.17956 0.4255 0.0
N178 N 0.06918 0.34252 0.38349 0.0
C179 C 0.12694 0.32771 0.41433 0.0
C180 C 0.09117 0.23967 0.43751 0.0
C181 C 0.94845 0.2091 0.94612 0.0
C182 C 0.90449 0.12156 0.94101 0.0
C183 C 0.90845 0.25201 0.92542 0.0
C184 C 0.82381 0.20952 0.89808 0.0
H185 H 0.0119 0.24367 0.96922 0.0
H186 H 0.94157 0.31751 0.93393 0.0
S187 S 0.68233 -0.01723 0.87085 0.0
N188 N 0.77339 -0.00417 0.90285 0.0
N189 N 0.69823 0.07689 0.8654 0.0
C190 C 0.78143 0.12402 0.88949 0.0
C191 C 0.82193 0.07999 0.91049 0.0
C192 C 0.73676 0.93643 0.422 0.0
C193 C 0.79163 0.9072 0.42202 0.0
C194 C 0.65111 0.8931 0.3968 0.0
C195 C 0.61702 0.81923 0.37034 0.0
H196 H 0.75721 -0.01021 0.44509 0.0
H197 H 0.60835 0.91382 0.40208 0.0
S198 S 0.73948 0.72552 0.34807 0.0
N199 N 0.81102 0.80735 0.38442 0.0
N200 N 0.64791 0.72437 0.33883 0.0
C201 C 0.67394 0.79383 0.36479 0.0
C202 C 0.76202 0.8385 0.39003 0.0
C203 C 0.82673 0.62814 0.9606 0.0
C204 C 0.83249 0.69788 0.92442 0.0
C205 C 0.80177 0.55602 0.93603 0.0
C206 C 0.78014 0.54974 0.87432 0.0
H207 H 0.84369 0.62989 1.00813 0.0
H208 H 0.79954 0.50456 0.9662 0.0
S209 S 0.77336 0.7114 0.76292 0.0
N210 N 0.80972 0.75563 0.82536 0.0
N211 N 0.75759 0.61687 0.77934 0.0
C212 C 0.78253 0.61801 0.83806 0.0
C213 C 0.80992 0.69282 0.86312 0.0
loop_
_geom_bond_atom_site_label_1
_geom_bond_atom_site_label_2
_geom_bond_distance
_geom_bond_site_symmetry_2
_ccdc_geom_bond_type
Dy0 O4 2.398 . S
Dy0 O5 2.491 . S
Dy0 O6 2.403 1_455 S
Dy0 O7 2.664 1_445 S
Dy0 O11 2.326 1_455 S
Dy0 O15 2.310 1_554 S
Dy0 O16 2.351 1_545 S
C1 O12 1.185 . S
C1 O13 1.355 . S
C2 O4 1.185 . S
C2 O5 1.355 . S
Dy3 O7 2.310 1_556 S
Dy3 O10 2.351 1_565 S
Dy3 O12 2.398 . S
Dy3 O13 2.491 . S
Dy3 O14 2.403 1_665 S
Dy3 O15 2.664 1_665 S
Dy3 O17 2.326 1_656 S
O4 Dy0 2.398 . S
O4 C2 1.185 . S
O5 Dy0 2.491 . S
O5 C2 1.355 . S
O6 Dy0 2.403 1_655 S
O6 C8 1.244 1_545 S
O7 Dy0 2.664 1_665 S
O7 Dy3 2.310 1_554 S
O7 C8 1.268 . S
C8 O6 1.244 1_565 S
C8 O7 1.268 . S
C9 O14 1.254 . S
C9 O15 1.268 . S
O10 Dy3 2.351 1_545 S
O10 C18 1.249 . S
O11 Dy0 2.326 1_655 S
O11 C18 1.267 1_554 S
O12 C1 1.185 . S
O12 Dy3 2.398 . S
O13 C1 1.355 . S
O13 Dy3 2.491 . S
O14 Dy3 2.403 1_445 S
O14 C9 1.254 . S
O15 Dy0 2.310 1_556 S
O15 Dy3 2.664 1_445 S
O15 C9 1.268 . S
O16 Dy0 2.351 1_565 S
O16 C19 1.249 . S
O17 Dy3 2.326 1_454 S
O17 C19 1.267 . S
C18 O10 1.249 . S
C18 O11 1.267 1_556 S
C19 O16 1.249 . S
C19 O17 1.267 . S
Dy20 O24 2.398 . S
Dy20 O25 2.491 . S
Dy20 O26 2.403 1_545 S
Dy20 O27 2.664 1_545 S
Dy20 O31 2.326 1_545 S
Dy20 O35 2.310 1_655 S
Dy20 O36 2.351 1_655 S
C21 O32 1.185 . S
C21 O33 1.355 . S
C22 O24 1.185 . S
C22 O25 1.355 . S
Dy23 O27 2.310 1_455 S
Dy23 O30 2.351 1_455 S
Dy23 O32 2.398 . S
Dy23 O33 2.491 . S
Dy23 O34 2.403 1_565 S
Dy23 O35 2.664 1_565 S
Dy23 O37 2.326 1_565 S
O24 Dy20 2.398 . S
O24 C22 1.185 . S
O25 Dy20 2.491 . S
O25 C22 1.355 . S
O26 Dy20 2.403 1_565 S
O26 C28 1.254 . S
O27 Dy20 2.664 1_565 S
O27 Dy23 2.310 1_655 S
O27 C28 1.268 . S
C28 O26 1.254 . S
C28 O27 1.268 . S
C29 O34 1.254 . S
C29 O35 1.268 . S
O30 Dy23 2.351 1_655 S
O30 C38 1.249 . S
O31 Dy20 2.326 1_565 S
O31 C38 1.267 . S
O32 C21 1.185 . S
O32 Dy23 2.398 . S
O33 C21 1.355 . S
O33 Dy23 2.491 . S
O34 Dy23 2.403 1_545 S
O34 C29 1.254 . S
O35 Dy20 2.310 1_455 S
O35 Dy23 2.664 1_545 S
O35 C29 1.268 . S
O36 Dy20 2.351 1_455 S
O36 C39 1.249 . S
O37 Dy23 2.326 1_545 S
O37 C39 1.267 . S
C38 O30 1.249 . S
C38 O31 1.267 . S
C39 O36 1.249 . S
C39 O37 1.267 . S
Zn40 O46 1.920 . S
Zn40 O52 1.898 . S
Zn40 O55 1.905 . S
Zn41 O49 1.905 . S
Zn41 O50 1.898 . S
Zn41 O58 1.920 . S
Zn42 O45 2.080 . S
Zn42 O48 2.114 . S
Zn42 O51 2.120 . S
Zn42 O53 2.120 . S
Zn42 O54 2.114 . S
Zn42 O57 2.080 . S
C43 O48 1.166 . S
C43 O49 1.182 . S
C44 O50 1.167 . S
C44 O51 1.299 . S
O45 Zn42 2.080 . S
O45 C59 1.305 . S
O46 Zn40 1.920 . S
O46 C59 1.234 . S
C47 O52 1.167 . S
C47 O53 1.299 . S
O48 Zn42 2.114 . S
O48 C43 1.166 . S
O49 Zn41 1.905 . S
O49 C43 1.182 . S
O50 Zn41 1.898 . S
O50 C44 1.167 . S
O51 Zn42 2.120 . S
O51 C44 1.299 . S
O52 Zn40 1.898 . S
O52 C47 1.167 . S
O53 Zn42 2.120 . S
O53 C47 1.299 . S
O54 Zn42 2.114 . S
O54 C56 1.166 . S
O55 Zn40 1.905 . S
O55 C56 1.182 . S
C56 O54 1.166 . S
C56 O55 1.182 . S
O57 Zn42 2.080 . S
O57 C60 1.305 . S
O58 Zn41 1.920 . S
O58 C60 1.234 . S
C59 O45 1.305 . S
C59 O46 1.234 . S
C60 O57 1.305 . S
C60 O58 1.234 . S
Zn61 O67 1.920 . S
Zn61 O73 1.898 . S
Zn61 O76 1.905 . S
Zn62 O70 1.905 . S
Zn62 O71 1.898 . S
Zn62 O79 1.920 . S
Zn63 O66 2.080 . S
Zn63 O69 2.114 . S
Zn63 O72 2.120 . S
Zn63 O74 2.120 . S
Zn63 O75 2.114 . S
Zn63 O78 2.080 . S
C64 O69 1.166 . S
C64 O70 1.182 . S
C65 O71 1.167 . S
C65 O72 1.299 . S
O66 Zn63 2.080 . S
O66 C80 1.305 . S
O67 Zn61 1.920 . S
O67 C80 1.234 . S
C68 O73 1.167 . S
C68 O74 1.299 . S
O69 Zn63 2.114 . S
O69 C64 1.166 . S
O70 Zn62 1.905 . S
O70 C64 1.182 . S
O71 Zn62 1.898 . S
O71 C65 1.167 . S
O72 Zn63 2.120 . S
O72 C65 1.299 . S
O73 Zn61 1.898 . S
O73 C68 1.167 . S
O74 Zn63 2.120 . S
O74 C68 1.299 . S
O75 Zn63 2.114 . S
O75 C77 1.166 . S
O76 Zn61 1.905 . S
O76 C77 1.182 . S
C77 O75 1.166 . S
C77 O76 1.182 . S
O78 Zn63 2.080 . S
O78 C81 1.305 . S
O79 Zn62 1.920 . S
O79 C81 1.234 . S
C80 O66 1.305 . S
C80 O67 1.234 . S
C81 O78 1.305 . S
C81 O79 1.234 . S
C82 C83 1.369 . S
C82 C84 1.419 . S
C82 H86 0.930 1_455 S
C83 C82 1.369 . S
C83 C92 1.429 . S
C84 C82 1.419 . S
C84 C85 1.363 . S
C84 H87 0.929 . S
C85 C84 1.363 . S
C85 C91 1.428 . S
H86 C82 0.930 1_655 S
H87 C84 0.929 . S
S88 N89 1.613 . S
S88 N90 1.610 . S
N89 S88 1.613 . S
N89 C92 1.350 . S
N90 S88 1.610 . S
N90 C91 1.351 . S
C91 C85 1.428 . S
C91 N90 1.351 . S
C91 C92 1.434 . S
C92 C83 1.429 . S
C92 N89 1.350 . S
C92 C91 1.434 . S
C93 C94 1.369 . S
C93 C95 1.419 . S
C93 H97 0.930 . S
C94 C93 1.369 . S
C94 C103 1.429 . S
C95 C93 1.419 . S
C95 C96 1.363 . S
C95 H98 0.929 . S
C96 C95 1.363 . S
C96 C102 1.428 . S
H97 C93 0.930 . S
H98 C95 0.929 . S
S99 N100 1.613 . S
S99 N101 1.610 . S
N100 S99 1.613 . S
N100 C103 1.350 . S
N101 S99 1.610 . S
N101 C102 1.351 . S
C102 C96 1.428 . S
C102 N101 1.351 . S
C102 C103 1.434 . S
C103 C94 1.429 . S
C103 N100 1.350 . S
C103 C102 1.434 . S
C104 C105 1.369 . S
C104 C106 1.419 . S
C104 H108 0.930 . S
C105 C104 1.369 . S
C105 C114 1.429 . S
C106 C104 1.419 . S
C106 C107 1.363 . S
C106 H109 0.929 . S
C107 C106 1.363 . S
C107 C113 1.428 . S
H108 C104 0.930 . S
H109 C106 0.929 . S
S110 N111 1.613 . S
S110 N112 1.610 . S
N111 S110 1.613 . S
N111 C114 1.350 . S
N112 S110 1.610 . S
N112 C113 1.351 . S
C113 C107 1.428 . S
C113 N112 1.351 . S
C113 C114 1.434 . S
C114 C105 1.429 . S
C114 N111 1.350 . S
C114 C113 1.434 . S
C115 C116 1.369 . S
C115 C117 1.419 . S
C115 H119 0.930 . S
C116 C115 1.369 . S
C116 C125 1.429 . S
C117 C115 1.419 . S
C117 C118 1.363 . S
C117 H120 0.929 . S
C118 C117 1.363 . S
C118 C124 1.428 . S
H119 C115 0.930 . S
H120 C117 0.929 . S
S121 N122 1.613 . S
S121 N123 1.610 . S
N122 S121 1.613 . S
N122 C125 1.350 . S
N123 S121 1.610 . S
N123 C124 1.351 . S
C124 C118 1.428 . S
C124 N123 1.351 . S
C124 C125 1.434 . S
C125 C116 1.429 . S
C125 N122 1.350 . S
C125 C124 1.434 . S
C126 C127 1.369 . S
C126 C128 1.419 . S
C126 H130 0.930 . S
C127 C126 1.369 . S
C127 C136 1.429 . S
C128 C126 1.419 . S
C128 C129 1.363 . S
C128 H131 0.929 . S
C129 C128 1.363 . S
C129 C135 1.428 . S
H130 C126 0.930 . S
H131 C128 0.929 . S
S132 N133 1.613 . S
S132 N134 1.610 . S
N133 S132 1.613 . S
N133 C136 1.350 . S
N134 S132 1.610 . S
N134 C135 1.351 . S
C135 C129 1.428 . S
C135 N134 1.351 . S
C135 C136 1.434 . S
C136 C127 1.429 . S
C136 N133 1.350 . S
C136 C135 1.434 . S
C137 C138 1.369 . S
C137 C139 1.419 . S
C137 H141 0.930 . S
C138 C137 1.369 . S
C138 C147 1.429 . S
C139 C137 1.419 . S
C139 C140 1.363 . S
C139 H142 0.929 . S
C140 C139 1.363 . S
C140 C146 1.428 . S
H141 C137 0.930 . S
H142 C139 0.929 . S
S143 N144 1.613 . S
S143 N145 1.610 . S
N144 S143 1.613 . S
N144 C147 1.350 . S
N145 S143 1.610 . S
N145 C146 1.351 . S
C146 C140 1.428 . S
C146 N145 1.351 . S
C146 C147 1.434 . S
C147 C138 1.429 . S
C147 N144 1.350 . S
C147 C146 1.434 . S
C148 C149 1.369 . S
C148 C150 1.419 . S
C148 H152 0.930 . S
C149 C148 1.369 . S
C149 C158 1.429 . S
C150 C148 1.419 . S
C150 C151 1.363 . S
C150 H153 0.929 . S
C151 C150 1.363 . S
C151 C157 1.428 . S
H152 C148 0.930 . S
H153 C150 0.929 . S
S154 N155 1.613 . S
S154 N156 1.610 1_545 S
N155 S154 1.613 . S
N155 C158 1.350 1_545 S
N156 S154 1.610 1_565 S
N156 C157 1.351 . S
C157 C151 1.428 . S
C157 N156 1.351 . S
C157 C158 1.434 . S
C158 C149 1.429 . S
C158 N155 1.350 1_565 S
C158 C157 1.434 . S
C159 C160 1.369 . S
C159 C161 1.419 . S
C159 H163 0.930 . S
C160 C159 1.369 . S
C160 C169 1.429 . S
C161 C159 1.419 . S
C161 C162 1.363 . S
C161 H164 0.929 . S
C162 C161 1.363 . S
C162 C168 1.428 . S
H163 C159 0.930 . S
H164 C161 0.929 . S
S165 N166 1.613 . S
S165 N167 1.610 . S
N166 S165 1.613 . S
N166 C169 1.350 . S
N167 S165 1.610 . S
N167 C168 1.351 . S
C168 C162 1.428 . S
C168 N167 1.351 . S
C168 C169 1.434 . S
C169 C160 1.429 . S
C169 N166 1.350 . S
C169 C168 1.434 . S
C170 C171 1.369 . S
C170 C172 1.419 . S
C170 H174 0.930 . S
C171 C170 1.369 . S
C171 C180 1.429 . S
C172 C170 1.419 . S
C172 C173 1.363 . S
C172 H175 0.929 . S
C173 C172 1.363 . S
C173 C179 1.428 . S
H174 C170 0.930 . S
H175 C172 0.929 . S
S176 N177 1.617 . S
S176 N178 1.610 1_655 S
N177 S176 1.617 . S
N177 C180 1.347 1_655 S
N178 S176 1.610 1_455 S
N178 C179 1.351 . S
C179 C173 1.428 . S
C179 N178 1.351 . S
C179 C180 1.434 . S
C180 C171 1.429 . S
C180 N177 1.347 1_455 S
C180 C179 1.434 . S
C181 C182 1.369 . S
C181 C183 1.419 . S
C181 H185 0.930 . S
C182 C181 1.369 . S
C182 C191 1.429 . S
C183 C181 1.419 . S
C183 C184 1.363 . S
C183 H186 0.929 . S
C184 C183 1.363 . S
C184 C190 1.428 . S
H185 C181 0.930 . S
H186 C183 0.929 . S
S187 N188 1.613 . S
S187 N189 1.610 . S
N188 S187 1.613 . S
N188 C191 1.350 . S
N189 S187 1.610 . S
N189 C190 1.351 . S
C190 C184 1.428 . S
C190 N189 1.351 . S
C190 C191 1.434 . S
C191 C182 1.429 . S
C191 N188 1.350 . S
C191 C190 1.434 . S
C192 C193 1.369 . S
C192 C194 1.419 . S
C192 H196 0.930 . S
C193 C192 1.369 . S
C193 C202 1.429 . S
C194 C192 1.419 . S
C194 C195 1.363 . S
C194 H197 0.929 . S
C195 C194 1.363 . S
C195 C201 1.428 . S
H196 C192 0.930 . S
H197 C194 0.929 . S
S198 N199 1.613 . S
S198 N200 1.610 . S
N199 S198 1.613 . S
N199 C202 1.350 . S
N200 S198 1.610 . S
N200 C201 1.351 . S
C201 C195 1.428 . S
C201 N200 1.351 . S
C201 C202 1.434 . S
C202 C193 1.429 . S
C202 N199 1.350 . S
C202 C201 1.434 . S
C203 C204 1.369 . S
C203 C205 1.419 . S
C203 H207 0.930 . S
C204 C203 1.369 . S
C204 C213 1.429 . S
C205 C203 1.419 . S
C205 C206 1.363 . S
C205 H208 0.929 . S
C206 C205 1.363 . S
C206 C212 1.428 . S
H207 C203 0.930 . S
H208 C205 0.929 . S
S209 N210 1.613 . S
S209 N211 1.610 . S
N210 S209 1.613 . S
N210 C213 1.350 . S
N211 S209 1.610 . S
N211 C212 1.351 . S
C212 C206 1.428 . S
C212 N211 1.351 . S
C212 C213 1.434 . S
C213 C204 1.429 . S
C213 N210 1.350 . S
C213 C212 1.434 . S
C83 C19 1.654 . S
C85 C59 1.552 . S
C94 C39 1.346 . S
C96 C65 1.218 . S
C105 C2 1.180 . S
C107 C56 1.099 . S
C116 C22 1.440 . S
C118 C81 1.346 . S
C127 C8 1.781 . S
C129 C47 1.673 . S
C140 C64 1.776 . S
C138 C28 1.850 . S
C149 C21 1.335 . S
C151 C60 1.257 . S
C162 C77 1.573 . S
C160 C9 1.661 . S
C173 C44 1.730 . S
C171 C29 1.850 . S
C184 C80 1.660 . S
C182 C18 1.725 . S
C195 C43 1.343 . S
C193 C38 1.427 . S
C206 C68 1.100 . S
C204 C1 1.199 . S
