# Generated by pormake.
# Topology anh, (6,3)-cn, num edge types: 1
# Building blocks:
#     Node 0, Type 0, BuildingBlock: BETFEN_clean_sbu_0, # of connection points: 6
#     Node 1, Type 0, BuildingBlock: BETFEN_clean_sbu_0, # of connection points: 6
#     Node 2, Type 0, BuildingBlock: BETFEN_clean_sbu_0, # of connection points: 6
#     Node 3, Type 1, BuildingBlock: OLANEW_clean_sbu_2, # of connection points: 3
#     Node 4, Type 1, BuildingBlock: OLANEW_clean_sbu_2, # of connection points: 3
#     Node 5, Type 1, BuildingBlock: OLANEW_clean_sbu_2, # of connection points: 3
#     Node 6, Type 1, BuildingBlock: OLANEW_clean_sbu_2, # of connection points: 3
#     Node 7, Type 1, BuildingBlock: OLANEW_clean_sbu_2, # of connection points: 3
#     Node 8, Type 1, BuildingBlock: OLANEW_clean_sbu_2, # of connection points: 3
#     Edge 9, Type (0, 1), None
#     Edge 10, Type (0, 1), None
#     Edge 11, Type (0, 1), None
#     Edge 12, Type (0, 1), None
#     Edge 13, Type (0, 1), None
#     Edge 14, Type (0, 1), None
#     Edge 15, Type (0, 1), None
#     Edge 16, Type (0, 1), None
#     Edge 17, Type (0, 1), None
#     Edge 18, Type (0, 1), None
#     Edge 19, Type (0, 1), None
#     Edge 20, Type (0, 1), None
#     Edge 21, Type (0, 1), None
#     Edge 22, Type (0, 1), None
#     Edge 23, Type (0, 1), None
#     Edge 24, Type (0, 1), None
#     Edge 25, Type (0, 1), None
#     Edge 26, Type (0, 1), None
# Relax obj value: 0.341
# Max RMSD: 0.258
# Mean RMSD: 0.148
data_MOF--net-anh--node1-BETFEN_clean_sbu_0--node2-OLANEW_clean_sbu_2--edge1-none
_symmetry_space_group_name_H-M    P1
_symmetry_Int_Tables_number       1
_symmetry_cell_setting            triclinic
loop_
_symmetry_equiv_pos_as_xyz
'x, y, z'
_cell_length_a     17.937876
_cell_length_b     20.178601
_cell_length_c     22.788158
_cell_angle_alpha  91.001022
_cell_angle_beta   91.331907
_cell_angle_gamma 99.014354
loop_
_atom_site_label
_atom_site_type_symbol
_atom_site_fract_x
_atom_site_fract_y
_atom_site_fract_z
_atom_type_partial_charge
Pr0 Pr 0.98196 0.48523 0.15693 0.0
Pr1 Pr 0.02322 0.63364 0.1288 0.0
C2 C 0.93088 0.36313 0.19963 0.0
C3 C 0.86122 0.32059 0.21659 0.0
C4 C 0.86461 0.25555 0.23566 0.0
C5 C 0.79873 0.21313 0.2501 0.0
C6 C 0.72831 0.23524 0.24575 0.0
C7 C 0.72537 0.30113 0.22761 0.0
C8 C 0.79144 0.3435 0.213 0.0
C9 C 0.0154 0.50916 0.03996 0.0
C10 C 0.84481 0.57539 0.12831 0.0
C11 C 0.08311 0.75543 0.0904 0.0
C12 C 0.14927 0.80528 0.10823 0.0
C13 C 0.13989 0.87193 0.11975 0.0
C14 C 0.19902 0.91764 0.14506 0.0
C15 C 0.26874 0.89748 0.15913 0.0
C16 C 0.27932 0.83165 0.14447 0.0
C17 C 0.22002 0.78586 0.11958 0.0
C18 C -0.00083 0.60862 0.24752 0.0
C19 C 0.16194 0.5433 0.15524 0.0
O20 O 0.9544 0.41595 0.23306 0.0
O21 O 0.93834 0.37455 0.14361 0.0
O22 O 0.97512 0.54231 0.07011 0.0
O23 O 0.03945 0.46215 0.06968 0.0
O24 O 0.89537 0.61951 0.10303 0.0
O25 O 0.8645 0.52463 0.1577 0.0
O26 O 0.09618 0.69928 0.06601 0.0
O27 O 0.02894 0.74645 0.12822 0.0
O28 O 0.03424 0.57528 0.21371 0.0
O29 O 0.97993 0.66037 0.22179 0.0
O30 O 0.11164 0.49465 0.175 0.0
O31 O 0.1422 0.59774 0.13205 0.0
H32 H 0.91823 0.23731 0.23884 0.0
H33 H 0.80299 0.16287 0.26427 0.0
H34 H 0.67199 0.31965 0.22387 0.0
H35 H 0.78804 0.39377 0.19838 0.0
H36 H 0.08576 0.88791 0.11142 0.0
H37 H 0.18909 0.96802 0.1556 0.0
H38 H 0.33228 0.81446 0.15472 0.0
H39 H 0.22879 0.73463 0.11144 0.0
Pr40 Pr 0.55691 0.09005 0.58047 0.0
Pr41 Pr 0.38706 1.03834 0.57733 0.0
C42 C 0.70388 0.12657 0.55634 0.0
C43 C 0.75019 0.18354 0.52714 0.0
C44 C 0.76884 0.24677 0.55537 0.0
C45 C 0.81041 0.30066 0.52664 0.0
C46 C 0.83433 0.29262 0.469 0.0
C47 C 0.81664 0.22914 0.44111 0.0
C48 C 0.77537 0.17523 0.46993 0.0
C49 C 0.48853 0.09233 0.68864 0.0
C50 C 0.44797 0.20322 0.57593 0.0
C51 C 0.23692 0.99806 0.58266 0.0
C52 C 0.18836 0.93442 0.56581 0.0
C53 C 0.11051 0.93215 0.55639 0.0
C54 C 0.06533 0.87258 0.53653 0.0
C55 C 0.09738 0.81428 0.52569 0.0
C56 C 0.17539 0.81669 0.53608 0.0
C57 C 0.22042 0.87621 0.55575 0.0
C58 C 0.4565 1.03362 0.46974 0.0
C59 C 0.49772 0.92461 0.59456 0.0
O60 O 0.65708 0.08532 0.52264 0.0
O61 O 0.67548 0.13889 0.60706 0.0
O62 O 0.47512 0.04567 0.65092 0.0
O63 O 0.54508 0.13703 0.67459 0.0
O64 O 0.39442 0.15588 0.59442 0.0
O65 O 0.51233 0.18857 0.55698 0.0
O66 O 0.28341 0.99596 0.62749 0.0
O67 O 0.2684 1.03241 0.53917 0.0
O68 O 0.46797 0.08292 0.50536 0.0
O69 O 0.40864 0.98475 0.48939 0.0
O70 O 0.55445 0.97224 0.58234 0.0
O71 O 0.4284 0.93752 0.60074 0.0
H72 H 0.75081 0.25498 0.59949 0.0
H73 H 0.82314 0.34879 0.54947 0.0
H74 H 0.83432 0.22102 0.39677 0.0
H75 H 0.7625 0.12707 0.44713 0.0
H76 H 0.08487 0.9767 0.56351 0.0
H77 H 0.00549 0.8725 0.52893 0.0
H78 H 0.20202 0.77289 0.52809 0.0
H79 H 0.2806 0.87707 0.56221 0.0
Pr80 Pr 0.49415 0.45245 0.82474 0.0
Pr81 Pr 0.53726 0.61767 0.84132 0.0
C82 C 0.49701 0.32791 0.78339 0.0
C83 C 0.55818 0.28698 0.77741 0.0
C84 C 0.56451 0.23584 0.81737 0.0
C85 C 0.62458 0.19959 0.81458 0.0
C86 C 0.67862 0.2126 0.77098 0.0
C87 C 0.67326 0.26432 0.73157 0.0
C88 C 0.6133 0.3009 0.7344 0.0
C89 C 0.49384 0.50362 0.93742 0.0
C90 C 0.67608 0.52824 0.84528 0.0
C91 C 0.55426 0.74029 0.89163 0.0
C92 C 0.51077 0.7958 0.89006 0.0
C93 C 0.43943 0.78689 0.86198 0.0
C94 C 0.39779 0.83971 0.86011 0.0
C95 C 0.4271 0.90237 0.88609 0.0
C96 C 0.4981 0.91058 0.91521 0.0
C97 C 0.53962 0.85751 0.9172 0.0
C98 C 0.50397 0.5761 0.72375 0.0
C99 C 0.35674 0.54101 0.83347 0.0
O100 O 0.4991 0.3797 0.74906 0.0
O101 O 0.47757 0.3403 0.83716 0.0
O102 O 0.54096 0.52521 0.89909 0.0
O103 O 0.44661 0.45091 0.91926 0.0
O104 O 0.6575 0.58903 0.84642 0.0
O105 O 0.62663 0.47232 0.83811 0.0
O106 O 0.52078 0.68626 0.9171 0.0
O107 O 0.58769 0.72772 0.84289 0.0
O108 O 0.50753 0.5425 0.7688 0.0
O109 O 0.52017 0.63949 0.73841 0.0
O110 O 0.37498 0.48388 0.81304 0.0
O111 O 0.40667 0.593 0.85191 0.0
H112 H 0.52346 0.22436 0.85132 0.0
H113 H 0.62903 0.16159 0.84689 0.0
H114 H 0.71482 0.27586 0.69808 0.0
H115 H 0.61064 0.34035 0.70317 0.0
H116 H 0.41631 0.73924 0.841 0.0
H117 H 0.34356 0.83186 0.83704 0.0
H118 H 0.52237 0.95836 0.93532 0.0
H119 H 0.5945 0.86487 0.93933 0.0
O120 O 0.504 0.0927 0.38579 0.0
Cd121 Cd 0.52691 0.10114 0.28094 0.0
O122 O 0.45487 0.98583 0.3749 0.0
Cd123 Cd 0.45743 0.97746 0.27952 0.0
O124 O 0.38911 0.92336 0.20831 0.0
C125 C 0.32688 0.94233 0.19439 0.0
O126 O 0.31032 0.99735 0.21909 0.0
C127 C 0.47479 1.03747 0.4076 0.0
C128 C 0.65838 0.18915 0.25874 0.0
O129 O 0.59435 0.20977 0.25942 0.0
O130 O 0.65999 0.12705 0.26865 0.0
O131 O 0.46683 0.4836 0.65897 0.0
Cd132 Cd 0.4183 0.41089 0.57289 0.0
O133 O 0.46692 0.58491 0.62305 0.0
Cd134 Cd 0.47764 0.69661 0.62569 0.0
O135 O 0.46138 0.80732 0.6162 0.0
C136 C 0.51309 0.85531 0.60201 0.0
O137 O 0.45856 0.80825 0.61659 0.0
C138 C 0.47895 0.54742 0.66563 0.0
C139 C 0.43709 0.27434 0.57633 0.0
O140 O 0.48828 0.31958 0.55692 0.0
O141 O 0.37705 0.29297 0.59582 0.0
O142 O 0.11029 0.54381 0.97161 0.0
Cd143 Cd 0.13054 0.55931 0.86663 0.0
O144 O -0.00469 0.51921 0.93693 0.0
Cd145 Cd 0.87615 0.48041 0.93399 0.0
O146 O 0.76558 0.47181 0.89203 0.0
C147 C 0.7533 0.52236 0.86311 0.0
O148 O 0.80674 0.57468 0.86045 0.0
C149 C 0.04074 0.52641 0.98083 0.0
C150 C 0.27735 0.54682 0.84087 0.0
O151 O 0.25933 0.6032 0.85709 0.0
O152 O 0.22541 0.49558 0.83545 0.0
O153 O 0.97207 0.63873 0.34468 0.0
Cd154 Cd 0.96389 0.63561 0.45186 0.0
O155 O -0.01176 0.53375 0.32652 0.0
Cd156 Cd 0.95319 0.48933 0.41055 0.0
O157 O 0.89465 0.40733 0.46276 0.0
C158 C 0.87645 0.35003 0.4376 0.0
O159 O 0.89431 0.34269 0.38251 0.0
C160 C 0.98612 0.59307 0.30933 0.0
C161 C 0.0505 0.75198 0.50183 0.0
O162 O 0.07942 0.69876 0.49211 0.0
O163 O 0.98028 0.75005 0.48884 0.0
O164 O 0.38351 0.095 0.74885 0.0
Cd165 Cd 0.32645 0.07186 0.84354 0.0
O166 O 0.48908 0.07472 0.79068 0.0
Cd167 Cd 0.60751 0.0637 0.78294 0.0
O168 O 0.72511 0.10834 0.7715 0.0
C169 C 0.73959 0.17168 0.76621 0.0
O170 O 0.80822 0.19988 0.75356 0.0
C171 C 0.45278 0.08914 0.74545 0.0
C172 C 0.38737 0.96038 0.8776 0.0
O173 O 0.32531 0.95409 0.84752 0.0
O174 O 0.41743 1.01932 0.89544 0.0
O175 O 0.56034 0.55846 0.01938 0.0
Cd176 Cd 0.61202 0.60037 0.11563 0.0
O177 O 0.43712 0.52196 0.02693 0.0
Cd178 Cd 0.4033 0.55852 0.11158 0.0
O179 O 0.29115 0.58004 0.13503 0.0
C180 C 0.24162 0.53407 0.15434 0.0
O181 O 0.26013 0.47507 0.16558 0.0
C182 C 0.49721 0.52995 0.99762 0.0
C183 C 0.7647 0.58364 0.12419 0.0
O184 O 0.71283 0.53911 0.14366 0.0
O185 O 0.74505 0.63614 0.10153 0.0
loop_
_geom_bond_atom_site_label_1
_geom_bond_atom_site_label_2
_geom_bond_distance
_geom_bond_site_symmetry_2
_ccdc_geom_bond_type
Pr0 C2 2.880 . S
Pr0 O20 2.562 . S
Pr0 O21 2.490 . S
Pr0 O22 2.695 1_655 S
Pr0 O23 2.512 . S
Pr0 O25 2.437 . S
Pr0 O28 2.436 . S
Pr0 O30 2.438 1_655 S
Pr1 C11 2.880 . S
Pr1 O22 2.436 . S
Pr1 O24 2.438 1_455 S
Pr1 O26 2.562 . S
Pr1 O27 2.490 . S
Pr1 O28 2.695 1_455 S
Pr1 O29 2.512 . S
Pr1 O31 2.437 . S
C2 Pr0 2.880 . S
C2 C3 1.491 . S
C2 O20 1.254 . S
C2 O21 1.225 . S
C3 C2 1.491 . S
C3 C4 1.392 . S
C3 C8 1.356 . S
C4 C3 1.392 . S
C4 C5 1.368 . S
C4 H32 0.929 . S
C5 C4 1.368 . S
C5 C6 1.386 . S
C5 H33 0.929 . S
C6 C5 1.386 . S
C6 C7 1.373 . S
C7 C6 1.373 . S
C7 C8 1.409 . S
C7 H34 0.931 . S
C8 C3 1.356 . S
C8 C7 1.409 . S
C8 H35 0.930 . S
C9 O22 1.270 . S
C9 O23 1.248 1_455 S
C10 O24 1.267 . S
C10 O25 1.278 . S
C11 Pr1 2.880 . S
C11 C12 1.491 . S
C11 O26 1.254 . S
C11 O27 1.225 . S
C12 C11 1.491 . S
C12 C13 1.392 . S
C12 C17 1.356 . S
C13 C12 1.392 . S
C13 C14 1.368 . S
C13 H36 0.929 . S
C14 C13 1.368 . S
C14 C15 1.386 . S
C14 H37 0.929 . S
C15 C14 1.386 . S
C15 C16 1.373 . S
C16 C15 1.373 . S
C16 C17 1.409 . S
C16 H38 0.931 . S
C17 C12 1.356 . S
C17 C16 1.409 . S
C17 H39 0.930 . S
C18 O28 1.270 1_455 S
C18 O29 1.248 . S
C19 O30 1.267 . S
C19 O31 1.278 . S
O20 Pr0 2.562 . S
O20 C2 1.254 . S
O21 Pr0 2.490 . S
O21 C2 1.225 . S
O22 Pr0 2.695 1_455 S
O22 Pr1 2.436 . S
O22 C9 1.270 . S
O23 Pr0 2.512 . S
O23 C9 1.248 1_655 S
O24 Pr1 2.438 1_655 S
O24 C10 1.267 . S
O25 Pr0 2.437 . S
O25 C10 1.278 . S
O26 Pr1 2.562 . S
O26 C11 1.254 . S
O27 Pr1 2.490 . S
O27 C11 1.225 . S
O28 Pr0 2.436 . S
O28 Pr1 2.695 1_655 S
O28 C18 1.270 1_655 S
O29 Pr1 2.512 . S
O29 C18 1.248 . S
O30 Pr0 2.438 1_455 S
O30 C19 1.267 . S
O31 Pr1 2.437 . S
O31 C19 1.278 . S
H32 C4 0.929 . S
H33 C5 0.929 . S
H34 C7 0.931 . S
H35 C8 0.930 . S
H36 C13 0.929 . S
H37 C14 0.929 . S
H38 C16 0.931 . S
H39 C17 0.930 . S
Pr40 C42 2.880 . S
Pr40 O60 2.562 . S
Pr40 O61 2.490 . S
Pr40 O62 2.695 1_545 S
Pr40 O63 2.512 . S
Pr40 O65 2.437 . S
Pr40 O68 2.436 . S
Pr40 O70 2.438 1_545 S
Pr41 C51 2.880 . S
Pr41 O62 2.436 . S
Pr41 O64 2.438 1_565 S
Pr41 O66 2.562 . S
Pr41 O67 2.490 . S
Pr41 O68 2.695 1_565 S
Pr41 O69 2.512 . S
Pr41 O71 2.437 . S
C42 Pr40 2.880 . S
C42 C43 1.491 . S
C42 O60 1.254 . S
C42 O61 1.225 . S
C43 C42 1.491 . S
C43 C44 1.392 . S
C43 C48 1.356 . S
C44 C43 1.392 . S
C44 C45 1.368 . S
C44 H72 0.929 . S
C45 C44 1.368 . S
C45 C46 1.386 . S
C45 H73 0.929 . S
C46 C45 1.386 . S
C46 C47 1.373 . S
C47 C46 1.373 . S
C47 C48 1.409 . S
C47 H74 0.931 . S
C48 C43 1.356 . S
C48 C47 1.409 . S
C48 H75 0.930 . S
C49 O62 1.270 1_545 S
C49 O63 1.248 . S
C50 O64 1.267 . S
C50 O65 1.278 . S
C51 Pr41 2.880 . S
C51 C52 1.491 . S
C51 O66 1.254 . S
C51 O67 1.225 . S
C52 C51 1.491 . S
C52 C53 1.392 . S
C52 C57 1.356 . S
C53 C52 1.392 . S
C53 C54 1.368 . S
C53 H76 0.929 . S
C54 C53 1.368 . S
C54 C55 1.386 . S
C54 H77 0.929 . S
C55 C54 1.386 . S
C55 C56 1.373 . S
C56 C55 1.373 . S
C56 C57 1.409 . S
C56 H78 0.931 . S
C57 C52 1.356 . S
C57 C56 1.409 . S
C57 H79 0.930 . S
C58 O68 1.270 . S
C58 O69 1.248 1_545 S
C59 O70 1.267 . S
C59 O71 1.278 . S
O60 Pr40 2.562 . S
O60 C42 1.254 . S
O61 Pr40 2.490 . S
O61 C42 1.225 . S
O62 Pr40 2.695 1_565 S
O62 Pr41 2.436 . S
O62 C49 1.270 1_565 S
O63 Pr40 2.512 . S
O63 C49 1.248 . S
O64 Pr41 2.438 1_545 S
O64 C50 1.267 . S
O65 Pr40 2.437 . S
O65 C50 1.278 . S
O66 Pr41 2.562 . S
O66 C51 1.254 . S
O67 Pr41 2.490 . S
O67 C51 1.225 . S
O68 Pr40 2.436 . S
O68 Pr41 2.695 1_545 S
O68 C58 1.270 . S
O69 Pr41 2.512 . S
O69 C58 1.248 1_565 S
O70 Pr40 2.438 1_565 S
O70 C59 1.267 . S
O71 Pr41 2.437 . S
O71 C59 1.278 . S
H72 C44 0.929 . S
H73 C45 0.929 . S
H74 C47 0.931 . S
H75 C48 0.930 . S
H76 C53 0.929 . S
H77 C54 0.929 . S
H78 C56 0.931 . S
H79 C57 0.930 . S
Pr80 C82 2.880 . S
Pr80 O100 2.562 . S
Pr80 O101 2.490 . S
Pr80 O102 2.695 . S
Pr80 O103 2.512 . S
Pr80 O105 2.437 . S
Pr80 O108 2.436 . S
Pr80 O110 2.438 . S
Pr81 C91 2.880 . S
Pr81 O102 2.436 . S
Pr81 O104 2.438 . S
Pr81 O106 2.562 . S
Pr81 O107 2.490 . S
Pr81 O108 2.695 . S
Pr81 O109 2.512 . S
Pr81 O111 2.437 . S
C82 Pr80 2.880 . S
C82 C83 1.491 . S
C82 O100 1.254 . S
C82 O101 1.225 . S
C83 C82 1.491 . S
C83 C84 1.392 . S
C83 C88 1.356 . S
C84 C83 1.392 . S
C84 C85 1.368 . S
C84 H112 0.929 . S
C85 C84 1.368 . S
C85 C86 1.386 . S
C85 H113 0.929 . S
C86 C85 1.386 . S
C86 C87 1.373 . S
C87 C86 1.373 . S
C87 C88 1.409 . S
C87 H114 0.931 . S
C88 C83 1.356 . S
C88 C87 1.409 . S
C88 H115 0.930 . S
C89 O102 1.270 . S
C89 O103 1.248 . S
C90 O104 1.267 . S
C90 O105 1.278 . S
C91 Pr81 2.880 . S
C91 C92 1.491 . S
C91 O106 1.254 . S
C91 O107 1.225 . S
C92 C91 1.491 . S
C92 C93 1.392 . S
C92 C97 1.356 . S
C93 C92 1.392 . S
C93 C94 1.368 . S
C93 H116 0.929 . S
C94 C93 1.368 . S
C94 C95 1.386 . S
C94 H117 0.929 . S
C95 C94 1.386 . S
C95 C96 1.373 . S
C96 C95 1.373 . S
C96 C97 1.409 . S
C96 H118 0.931 . S
C97 C92 1.356 . S
C97 C96 1.409 . S
C97 H119 0.930 . S
C98 O108 1.270 . S
C98 O109 1.248 . S
C99 O110 1.267 . S
C99 O111 1.278 . S
O100 Pr80 2.562 . S
O100 C82 1.254 . S
O101 Pr80 2.490 . S
O101 C82 1.225 . S
O102 Pr80 2.695 . S
O102 Pr81 2.436 . S
O102 C89 1.270 . S
O103 Pr80 2.512 . S
O103 C89 1.248 . S
O104 Pr81 2.438 . S
O104 C90 1.267 . S
O105 Pr80 2.437 . S
O105 C90 1.278 . S
O106 Pr81 2.562 . S
O106 C91 1.254 . S
O107 Pr81 2.490 . S
O107 C91 1.225 . S
O108 Pr80 2.436 . S
O108 Pr81 2.695 . S
O108 C98 1.270 . S
O109 Pr81 2.512 . S
O109 C98 1.248 . S
O110 Pr80 2.438 . S
O110 C99 1.267 . S
O111 Pr81 2.437 . S
O111 C99 1.278 . S
H112 C84 0.929 . S
H113 C85 0.929 . S
H114 C87 0.931 . S
H115 C88 0.930 . S
H116 C93 0.929 . S
H117 C94 0.929 . S
H118 C96 0.931 . S
H119 C97 0.930 . S
O120 Cd121 2.300 . S
O120 C127 1.275 . S
Cd121 O120 2.300 . S
Cd121 O129 2.381 . S
Cd121 O130 2.378 . S
O122 Cd123 2.385 . S
O122 C127 1.255 1_565 S
Cd123 O122 2.385 . S
Cd123 O124 2.317 . S
O124 Cd123 2.317 . S
O124 C125 1.232 . S
C125 O124 1.232 . S
C125 O126 1.218 . S
O126 C125 1.218 . S
C127 O120 1.275 . S
C127 O122 1.255 1_545 S
C128 O129 1.258 . S
C128 O130 1.256 . S
O129 Cd121 2.381 . S
O129 C128 1.258 . S
O130 Cd121 2.378 . S
O130 C128 1.256 . S
O131 Cd132 2.300 . S
O131 C138 1.275 . S
Cd132 O131 2.300 . S
Cd132 O140 2.381 . S
Cd132 O141 2.378 . S
O133 Cd134 2.385 . S
O133 C138 1.255 . S
Cd134 O133 2.385 . S
Cd134 O135 2.317 . S
O135 Cd134 2.317 . S
O135 C136 1.232 . S
C136 O135 1.232 . S
C136 O137 1.218 . S
O137 C136 1.218 . S
C138 O131 1.275 . S
C138 O133 1.255 . S
C139 O140 1.258 . S
C139 O141 1.256 . S
O140 Cd132 2.381 . S
O140 C139 1.258 . S
O141 Cd132 2.378 . S
O141 C139 1.256 . S
O142 Cd143 2.300 . S
O142 C149 1.275 . S
Cd143 O142 2.300 . S
Cd143 O151 2.381 . S
Cd143 O152 2.378 . S
O144 Cd145 2.385 . S
O144 C149 1.255 1_655 S
Cd145 O144 2.385 . S
Cd145 O146 2.317 . S
O146 Cd145 2.317 . S
O146 C147 1.232 . S
C147 O146 1.232 . S
C147 O148 1.218 . S
O148 C147 1.218 . S
C149 O142 1.275 . S
C149 O144 1.255 1_455 S
C150 O151 1.258 . S
C150 O152 1.256 . S
O151 Cd143 2.381 . S
O151 C150 1.258 . S
O152 Cd143 2.378 . S
O152 C150 1.256 . S
O153 Cd154 2.300 . S
O153 C160 1.275 1_455 S
Cd154 O153 2.300 . S
Cd154 O162 2.381 . S
Cd154 O163 2.378 . S
O155 Cd156 2.385 . S
O155 C160 1.255 . S
Cd156 O155 2.385 . S
Cd156 O157 2.317 . S
O157 Cd156 2.317 . S
O157 C158 1.232 . S
C158 O157 1.232 . S
C158 O159 1.218 . S
O159 C158 1.218 . S
C160 O153 1.275 1_655 S
C160 O155 1.255 . S
C161 O162 1.258 . S
C161 O163 1.256 . S
O162 Cd154 2.381 . S
O162 C161 1.258 . S
O163 Cd154 2.378 . S
O163 C161 1.256 . S
O164 Cd165 2.300 . S
O164 C171 1.275 1_565 S
Cd165 O164 2.300 . S
Cd165 O173 2.381 . S
Cd165 O174 2.378 . S
O166 Cd167 2.385 . S
O166 C171 1.255 . S
Cd167 O166 2.385 . S
Cd167 O168 2.317 . S
O168 Cd167 2.317 . S
O168 C169 1.232 . S
C169 O168 1.232 . S
C169 O170 1.218 . S
O170 C169 1.218 . S
C171 O164 1.275 1_545 S
C171 O166 1.255 . S
C172 O173 1.258 . S
C172 O174 1.256 . S
O173 Cd165 2.381 . S
O173 C172 1.258 . S
O174 Cd165 2.378 . S
O174 C172 1.256 . S
O175 Cd176 2.300 . S
O175 C182 1.275 . S
Cd176 O175 2.300 . S
Cd176 O184 2.381 . S
Cd176 O185 2.378 . S
O177 Cd178 2.385 . S
O177 C182 1.255 . S
Cd178 O177 2.385 . S
Cd178 O179 2.317 . S
O179 Cd178 2.317 . S
O179 C180 1.232 . S
C180 O179 1.232 . S
C180 O181 1.218 . S
O181 C180 1.218 . S
C182 O175 1.275 . S
C182 O177 1.255 . S
C183 O184 1.258 . S
C183 O185 1.256 . S
O184 Cd176 2.381 . S
O184 C183 1.258 . S
O185 Cd176 2.378 . S
O185 C183 1.256 . S
C19 C180 2.242 . S
C46 C158 2.954 . S
C95 C172 2.628 . S
C10 C183 2.593 . S
C161 C55 1.581 . S
C169 C86 3.555 . S
C59 C136 4.679 . S
C90 C147 2.318 . S
C15 C125 2.164 . S
C139 C50 4.609 . S
C150 C99 2.473 . S
C6 C128 1.389 . S
C149 C9 1.034 1_556 S
C58 C127 1.295 . S
C98 C138 1.891 . S
C171 C49 1.102 . S
C182 C89 1.153 1_554 S
C18 C160 1.325 1_455 S
