# Generated by pormake.
# Topology zzz, (3,6)-cn, num edge types: 1
# Building blocks:
#     Node 0, Type 0, BuildingBlock: OLANEW_clean_sbu_2, # of connection points: 3
#     Node 1, Type 0, BuildingBlock: OLANEW_clean_sbu_2, # of connection points: 3
#     Node 2, Type 0, BuildingBlock: OLANEW_clean_sbu_2, # of connection points: 3
#     Node 3, Type 0, BuildingBlock: OLANEW_clean_sbu_2, # of connection points: 3
#     Node 4, Type 0, BuildingBlock: OLANEW_clean_sbu_2, # of connection points: 3
#     Node 5, Type 0, BuildingBlock: OLANEW_clean_sbu_2, # of connection points: 3
#     Node 6, Type 0, BuildingBlock: OLANEW_clean_sbu_2, # of connection points: 3
#     Node 7, Type 0, BuildingBlock: OLANEW_clean_sbu_2, # of connection points: 3
#     Node 8, Type 1, BuildingBlock: CUKXOW_clean_sbu_0, # of connection points: 6
#     Node 9, Type 1, BuildingBlock: CUKXOW_clean_sbu_0, # of connection points: 6
#     Node 10, Type 1, BuildingBlock: CUKXOW_clean_sbu_0, # of connection points: 6
#     Node 11, Type 1, BuildingBlock: CUKXOW_clean_sbu_0, # of connection points: 6
#     Edge 12, Type (0, 1), None
#     Edge 13, Type (0, 1), None
#     Edge 14, Type (0, 1), None
#     Edge 15, Type (0, 1), None
#     Edge 16, Type (0, 1), None
#     Edge 17, Type (0, 1), None
#     Edge 18, Type (0, 1), None
#     Edge 19, Type (0, 1), None
#     Edge 20, Type (0, 1), None
#     Edge 21, Type (0, 1), None
#     Edge 22, Type (0, 1), None
#     Edge 23, Type (0, 1), None
#     Edge 24, Type (0, 1), None
#     Edge 25, Type (0, 1), None
#     Edge 26, Type (0, 1), None
#     Edge 27, Type (0, 1), None
#     Edge 28, Type (0, 1), None
#     Edge 29, Type (0, 1), None
#     Edge 30, Type (0, 1), None
#     Edge 31, Type (0, 1), None
#     Edge 32, Type (0, 1), None
#     Edge 33, Type (0, 1), None
#     Edge 34, Type (0, 1), None
#     Edge 35, Type (0, 1), None
# Relax obj value: 0.065
# Max RMSD: 0.142
# Mean RMSD: 0.088
data_MOF--net-zzz--node1-OLANEW_clean_sbu_2--node2-CUKXOW_clean_sbu_0--edge1-none
_symmetry_space_group_name_H-M    P1
_symmetry_Int_Tables_number       1
_symmetry_cell_setting            triclinic
loop_
_symmetry_equiv_pos_as_xyz
'x, y, z'
_cell_length_a     24.566103
_cell_length_b     25.876962
_cell_length_c     9.8078685
_cell_angle_alpha  95.506154
_cell_angle_beta   83.235259
_cell_angle_gamma 95.895292
loop_
_atom_site_label
_atom_site_type_symbol
_atom_site_fract_x
_atom_site_fract_y
_atom_site_fract_z
_atom_type_partial_charge
O0 O 0.84864 0.49728 0.78707 0.0
Cd1 Cd 0.7624 0.4408 0.81306 0.0
O2 O 0.88566 0.4303 0.84535 0.0
Cd3 Cd 0.95311 0.40518 0.9394 0.0
O4 O 0.99737 0.42729 0.11876 0.0
C5 C 0.97219 0.45649 0.21131 0.0
O6 O 0.92321 0.46915 0.19406 0.0
C7 C 0.89089 0.47673 0.81079 0.0
C8 C 0.66783 0.4933 0.84015 0.0
O9 O 0.68523 0.47935 -0.05211 0.0
O10 O 0.69522 0.48313 0.7229 0.0
O11 O 1.00489 0.8585 0.59461 0.0
Cd12 Cd 0.95987 0.76697 0.57403 0.0
O13 O 0.02436 0.83499 0.78733 0.0
Cd14 Cd 0.03649 0.85128 -0.00258 0.0
O15 O 0.0234 0.89159 0.19498 0.0
C16 C 0.98989 0.92618 0.2248 0.0
O17 O 0.9589 0.93775 0.13381 0.0
C18 C 0.02376 0.87107 0.70923 0.0
C19 C 0.99998 0.67505 0.64286 0.0
O20 O 1.00154 0.68576 0.51745 0.0
O21 O 0.98276 0.70895 0.73787 0.0
O22 O 0.67461 0.03875 0.91191 0.0
Cd23 Cd 0.74587 0.98549 -0.03633 0.0
O24 O 0.69288 0.09155 0.09133 0.0
Cd25 Cd 0.66669 0.14386 0.2662 0.0
O26 O 0.62421 0.13926 0.47136 0.0
C27 C 0.62494 0.09696 0.52689 0.0
O28 O 0.65256 0.05951 0.46152 0.0
C29 C 0.66292 0.07767 -0.00494 0.0
C30 C 0.85661 1.0105 0.87426 0.0
O31 O 0.82299 0.98761 0.79235 0.0
O32 O 0.83777 1.02403 -0.00143 0.0
O33 O 0.60657 0.70407 0.7774 0.0
Cd34 Cd 0.6652 0.78425 0.74076 0.0
O35 O 0.62831 0.71042 -0.00977 0.0
Cd36 Cd 0.62628 0.67611 0.18917 0.0
O37 O 0.64439 0.59768 0.2239 0.0
C38 C 0.62634 0.56088 0.29904 0.0
O39 O 0.64785 0.51616 0.27141 0.0
C40 C 0.60331 0.68566 0.89367 0.0
C41 C 0.60794 0.8716 0.80829 0.0
O42 O 0.6078 0.84667 0.68904 0.0
O43 O 0.63503 0.8554 0.89703 0.0
O44 O 0.18833 0.60338 0.78588 0.0
Cd45 Cd 0.26894 0.66591 0.81748 0.0
O46 O 0.2281 0.5791 0.58238 0.0
Cd47 Cd 0.21903 0.54865 0.37439 0.0
O48 O 0.17299 0.54812 0.20103 0.0
C49 C 0.12702 0.56751 0.21348 0.0
O50 O 0.10642 0.58833 0.3333 0.0
C51 C 0.1866 0.57577 0.67214 0.0
C52 C 0.36881 0.62281 0.8062 0.0
O53 O 0.35469 0.63936 0.69768 0.0
O54 O 0.33567 0.62584 0.91719 0.0
O55 O 0.04902 0.1856 0.83 0.0
Cd56 Cd 0.1023 0.27332 0.86557 0.0
O57 O 0.1119 0.1837 0.65424 0.0
Cd58 Cd 0.1478 0.15087 0.4578 0.0
O59 O 0.11908 0.1261 0.26091 0.0
C60 C 0.10167 0.07859 0.23945 0.0
O61 O 0.10952 0.04487 0.32497 0.0
C62 C 0.07074 0.16082 0.72233 0.0
C63 C 0.07197 0.37072 0.80397 0.0
O64 O 0.06821 0.3583 0.92832 0.0
O65 O 0.08703 0.33649 0.70735 0.0
O66 O 0.36968 1.0049 0.67116 0.0
Cd67 Cd 0.30617 1.01495 0.50068 0.0
O68 O 0.39927 0.0884 0.68226 0.0
Cd69 Cd 0.35551 0.0987 0.51102 0.0
O70 O 0.39123 0.08479 0.30018 0.0
C71 C 0.42175 0.048 0.2616 0.0
O72 O 0.4283 1.01382 0.34757 0.0
C73 C 0.40023 0.04319 0.72099 0.0
C74 C 0.19484 1.01554 0.59565 0.0
O75 O 0.22934 0.05402 0.6279 0.0
O76 O 0.21274 0.97618 0.52102 0.0
O77 O 0.43944 0.42216 0.92604 0.0
Cd78 Cd 0.38405 0.3501 0.02855 0.0
O79 O 0.38659 0.41948 0.75986 0.0
Cd80 Cd 0.37093 0.44529 0.56614 0.0
O81 O 0.40721 0.46959 0.36867 0.0
C82 C 0.42189 0.51727 0.35323 0.0
O83 O 0.41047 0.55312 0.45359 0.0
C84 C 0.42879 0.43922 0.81617 0.0
C85 C 0.44302 0.26328 -0.0222 0.0
O86 O 0.44757 0.2939 0.08726 0.0
O87 O 0.41008 0.27305 0.89362 0.0
Tb88 Tb 1.01324 1.01167 0.58603 0.0
C89 C 0.13626 1.0166 0.64371 0.0
Tb90 Tb 0.04142 1.02375 0.87919 0.0
O91 O 0.05277 0.08943 0.5438 0.0
O92 O 1.01952 0.07454 0.74219 0.0
O93 O 0.09938 0.99478 0.56355 0.0
C94 C 0.07498 0.06108 0.11736 0.0
O95 O 0.12187 0.0394 0.76625 0.0
C96 C 0.03685 0.92674 0.75874 0.0
C97 C 0.91572 1.01717 0.82733 0.0
O98 O 0.07767 0.08739 0.01076 0.0
O99 O 0.05035 1.01494 0.09329 0.0
O100 O 0.06765 0.94341 0.85556 0.0
O101 O 1.00775 0.96271 0.74568 0.0
O102 O 0.95187 0.02701 0.92052 0.0
O103 O 0.93023 1.00804 0.69271 0.0
C104 C 0.99364 0.95701 0.35479 0.0
O105 O 0.97218 1.00074 0.39645 0.0
O106 O 0.02583 0.94588 0.44033 0.0
C107 C 0.04817 0.10791 0.67186 0.0
Tb108 Tb 0.519 0.12727 0.91735 0.0
C109 C 0.5917 0.08873 0.65792 0.0
Tb110 Tb 0.5352 1.0094 0.87941 0.0
O111 O 0.60613 0.14646 -0.04625 0.0
O112 O 0.56426 0.07529 0.00021 0.0
O113 O 0.56071 0.12598 0.71216 0.0
C114 C 0.57952 0.91886 0.83918 0.0
O115 O 0.59238 0.04379 0.71371 0.0
C116 C 0.44368 0.03399 0.80261 0.0
C117 C 0.45715 0.05093 0.13146 0.0
O118 O 0.54955 0.9362 0.75662 0.0
O119 O 0.58405 0.952 -0.05373 0.0
O120 O 0.44955 0.98833 0.84101 0.0
O121 O 0.48984 0.06049 0.79432 0.0
O122 O 0.4892 1.01321 0.0844 0.0
O123 O 0.4579 0.0947 0.07151 0.0
C124 C 0.47302 0.21685 -0.04799 0.0
O125 O 0.50493 0.20198 0.03433 0.0
O126 O 0.46812 0.18211 0.84868 0.0
C127 C 0.61079 0.10058 -0.0075 0.0
Tb128 Tb 0.53141 0.5612 0.6722 0.0
C129 C 0.42163 0.60103 0.80598 0.0
Tb130 Tb 0.50502 0.55566 -0.01637 0.0
O131 O 0.46244 0.50121 0.64146 0.0
O132 O 0.50724 0.50296 0.80882 0.0
O133 O 0.45932 0.60461 0.69753 0.0
C134 C 0.45288 0.53146 0.22467 0.0
O135 O 0.42938 0.57901 0.91833 0.0
C136 C 0.57167 0.63571 0.91686 0.0
C137 C 0.61668 0.51845 0.84699 0.0
O138 O 0.46954 0.57848 0.19365 0.0
O139 O 0.46707 0.4983 0.12274 0.0
O140 O 0.57016 0.6143 0.03176 0.0
O141 O 0.53233 0.61558 0.85061 0.0
O142 O 0.57965 0.5153 -0.04327 0.0
O143 O 0.6081 0.54009 0.73515 0.0
C144 C 0.58339 0.56537 0.41621 0.0
O145 O 0.55814 0.52452 0.46974 0.0
O146 O 0.57797 0.60542 0.50619 0.0
C147 C 0.46637 0.4807 0.75498 0.0
Tb148 Tb 0.03732 0.50506 0.57518 0.0
C149 C 0.06089 0.4234 0.77348 0.0
Tb150 Tb 0.04224 0.54369 0.87509 0.0
O151 O 0.12814 0.51237 0.53409 0.0
O152 O 0.08816 0.55921 0.68837 0.0
O153 O 0.04751 0.43007 0.6497 0.0
C154 C 0.09649 0.5631 0.09426 0.0
O155 O 0.06232 0.46205 0.8733 0.0
C156 C 0.94394 0.50788 0.81585 0.0
C157 C 1.01423 0.62369 0.67509 0.0
O158 O 0.11656 0.54483 -0.02622 0.0
O159 O 0.04519 0.5716 0.09308 0.0
O160 O 0.95308 0.54207 0.91903 0.0
O161 O 0.98894 0.49071 0.76472 0.0
O162 O 0.03021 0.61836 0.79798 0.0
O163 O 1.01178 0.58443 0.57681 0.0
C164 C 0.99619 0.47471 0.33843 0.0
O165 O 0.96974 0.49714 0.44641 0.0
O166 O 0.04617 0.46983 0.36225 0.0
C167 C 0.13455 0.54617 0.63916 0.0
loop_
_geom_bond_atom_site_label_1
_geom_bond_atom_site_label_2
_geom_bond_distance
_geom_bond_site_symmetry_2
_ccdc_geom_bond_type
O0 Cd1 2.300 . S
O0 C7 1.275 . S
Cd1 O0 2.300 . S
Cd1 O9 2.381 . S
Cd1 O10 2.378 1_556 S
O2 Cd3 2.385 1_556 S
O2 C7 1.255 . S
Cd3 O2 2.385 1_554 S
Cd3 O4 2.317 . S
O4 Cd3 2.317 . S
O4 C5 1.232 . S
C5 O4 1.232 . S
C5 O6 1.218 . S
O6 C5 1.218 . S
C7 O0 1.275 . S
C7 O2 1.255 . S
C8 O9 1.258 . S
C8 O10 1.256 1_556 S
O9 Cd1 2.381 . S
O9 C8 1.258 . S
O10 Cd1 2.378 1_554 S
O10 C8 1.256 1_554 S
O11 Cd12 2.300 . S
O11 C18 1.275 . S
Cd12 O11 2.300 . S
Cd12 O20 2.381 . S
Cd12 O21 2.378 . S
O13 Cd14 2.385 1_656 S
O13 C18 1.255 . S
Cd14 O13 2.385 1_454 S
Cd14 O15 2.317 1_455 S
O15 Cd14 2.317 1_655 S
O15 C16 1.232 . S
C16 O15 1.232 . S
C16 O17 1.225 . S
O17 C16 1.225 . S
C18 O11 1.275 . S
C18 O13 1.255 . S
C19 O20 1.258 . S
C19 O21 1.256 . S
O20 Cd12 2.381 . S
O20 C19 1.258 . S
O21 Cd12 2.378 . S
O21 C19 1.256 . S
O22 Cd23 2.300 1_566 S
O22 C29 1.275 . S
Cd23 O22 2.300 1_544 S
Cd23 O31 2.381 1_544 S
Cd23 O32 2.378 . S
O24 Cd25 2.385 . S
O24 C29 1.255 1_544 S
Cd25 O24 2.385 . S
Cd25 O26 2.317 . S
O26 Cd25 2.317 . S
O26 C27 1.232 1_545 S
C27 O26 1.232 1_565 S
C27 O28 1.218 1_565 S
O28 C27 1.218 1_545 S
C29 O22 1.275 . S
C29 O24 1.255 1_566 S
C30 O31 1.258 . S
C30 O32 1.256 1_566 S
O31 Cd23 2.381 1_566 S
O31 C30 1.258 . S
O32 Cd23 2.378 . S
O32 C30 1.256 1_544 S
O33 Cd34 2.300 1_556 S
O33 C40 1.275 . S
Cd34 O33 2.300 1_554 S
Cd34 O42 2.381 1_554 S
Cd34 O43 2.378 . S
O35 Cd36 2.385 . S
O35 C40 1.255 1_554 S
Cd36 O35 2.385 . S
Cd36 O37 2.317 . S
O37 Cd36 2.317 . S
O37 C38 1.232 . S
C38 O37 1.232 . S
C38 O39 1.218 . S
O39 C38 1.218 . S
C40 O33 1.275 . S
C40 O35 1.255 1_556 S
C41 O42 1.258 . S
C41 O43 1.256 1_556 S
O42 Cd34 2.381 1_556 S
O42 C41 1.258 . S
O43 Cd34 2.378 . S
O43 C41 1.256 1_554 S
O44 Cd45 2.300 . S
O44 C51 1.275 . S
Cd45 O44 2.300 . S
Cd45 O53 2.381 . S
Cd45 O54 2.378 . S
O46 Cd47 2.385 . S
O46 C51 1.255 . S
Cd47 O46 2.385 . S
Cd47 O48 2.317 . S
O48 Cd47 2.317 . S
O48 C49 1.232 . S
C49 O48 1.232 . S
C49 O50 1.218 . S
O50 C49 1.218 . S
C51 O44 1.275 . S
C51 O46 1.255 . S
C52 O53 1.258 . S
C52 O54 1.256 . S
O53 Cd45 2.381 . S
O53 C52 1.258 . S
O54 Cd45 2.378 . S
O54 C52 1.256 . S
O55 Cd56 2.300 . S
O55 C62 1.275 . S
Cd56 O55 2.300 . S
Cd56 O64 2.381 . S
Cd56 O65 2.378 . S
O57 Cd58 2.385 . S
O57 C62 1.255 . S
Cd58 O57 2.385 . S
Cd58 O59 2.317 . S
O59 Cd58 2.317 . S
O59 C60 1.232 . S
C60 O59 1.232 . S
C60 O61 1.218 . S
O61 C60 1.218 . S
C62 O55 1.275 . S
C62 O57 1.255 . S
C63 O64 1.258 . S
C63 O65 1.256 . S
O64 Cd56 2.381 . S
O64 C63 1.258 . S
O65 Cd56 2.378 . S
O65 C63 1.256 . S
O66 Cd67 2.300 . S
O66 C73 1.275 . S
Cd67 O66 2.300 . S
Cd67 O75 2.381 . S
Cd67 O76 2.378 . S
O68 Cd69 2.385 . S
O68 C73 1.255 . S
Cd69 O68 2.385 . S
Cd69 O70 2.317 . S
O70 Cd69 2.317 . S
O70 C71 1.232 . S
C71 O70 1.232 . S
C71 O72 1.218 . S
O72 C71 1.218 . S
C73 O66 1.275 . S
C73 O68 1.255 . S
C74 O75 1.258 . S
C74 O76 1.256 . S
O75 Cd67 2.381 . S
O75 C74 1.258 . S
O76 Cd67 2.378 . S
O76 C74 1.256 . S
O77 Cd78 2.300 . S
O77 C84 1.275 . S
Cd78 O77 2.300 . S
Cd78 O86 2.381 . S
Cd78 O87 2.378 . S
O79 Cd80 2.385 . S
O79 C84 1.255 . S
Cd80 O79 2.385 . S
Cd80 O81 2.317 . S
O81 Cd80 2.317 . S
O81 C82 1.232 . S
C82 O81 1.232 . S
C82 O83 1.218 . S
O83 C82 1.218 . S
C84 O77 1.275 . S
C84 O79 1.255 . S
C85 O86 1.258 . S
C85 O87 1.256 . S
O86 Cd78 2.381 . S
O86 C85 1.258 . S
O87 Cd78 2.378 . S
O87 C85 1.256 . S
Tb88 O91 2.453 . S
Tb88 O92 2.596 1_655 S
Tb88 O93 2.374 1_655 S
Tb88 O101 2.346 1_545 S
Tb88 O103 2.353 . S
Tb88 O105 2.427 1_545 S
Tb88 O106 2.513 1_645 S
C89 O93 1.251 . S
C89 O95 1.263 . S
Tb90 O92 2.343 1_554 S
Tb90 O95 2.353 1_554 S
Tb90 O98 2.427 . S
Tb90 O99 2.513 1_455 S
Tb90 O100 2.453 1_545 S
Tb90 O101 2.592 1_444 S
Tb90 O102 2.374 1_455 S
O91 Tb88 2.453 . S
O91 C107 1.245 1_655 S
O92 Tb88 2.596 1_455 S
O92 Tb90 2.343 1_556 S
O92 C107 1.259 . S
O93 Tb88 2.374 1_455 S
O93 C89 1.251 . S
C94 O98 1.275 . S
C94 O99 1.246 1_455 S
O95 C89 1.263 . S
O95 Tb90 2.353 1_556 S
C96 O100 1.245 1_656 S
C96 O101 1.258 . S
C97 O102 1.250 1_556 S
C97 O103 1.263 . S
O98 Tb90 2.427 . S
O98 C94 1.275 . S
O99 Tb90 2.513 1_655 S
O99 C94 1.246 1_655 S
O100 Tb90 2.453 1_565 S
O100 C96 1.245 1_454 S
O101 Tb88 2.346 1_565 S
O101 Tb90 2.592 1_666 S
O101 C96 1.258 . S
O102 Tb90 2.374 1_655 S
O102 C97 1.250 1_554 S
O103 Tb88 2.353 . S
O103 C97 1.263 . S
C104 O105 1.275 . S
C104 O106 1.246 1_655 S
O105 Tb88 2.427 1_565 S
O105 C104 1.275 . S
O106 Tb88 2.513 1_465 S
O106 C104 1.246 1_455 S
C107 O91 1.245 1_455 S
C107 O92 1.259 . S
Tb108 O111 2.453 1_556 S
Tb108 O112 2.596 1_545 S
Tb108 O113 2.374 . S
Tb108 O121 2.343 . S
Tb108 O123 2.353 1_556 S
Tb108 O125 2.427 . S
Tb108 O126 2.513 . S
C109 O113 1.233 1_565 S
C109 O115 1.277 . S
Tb110 O112 2.343 . S
Tb110 O115 2.353 . S
Tb110 O118 2.427 . S
Tb110 O119 2.513 1_556 S
Tb110 O120 2.453 . S
Tb110 O121 2.596 1_565 S
Tb110 O122 2.374 1_556 S
O111 Tb108 2.453 1_554 S
O111 C127 1.245 1_554 S
O112 Tb108 2.596 1_565 S
O112 Tb110 2.343 . S
O112 C127 1.259 1_565 S
O113 Tb108 2.374 . S
O113 C109 1.233 1_545 S
C114 O118 1.275 . S
C114 O119 1.246 1_556 S
O115 C109 1.277 . S
O115 Tb110 2.353 . S
C116 O120 1.245 1_545 S
C116 O121 1.259 . S
C117 O122 1.250 1_545 S
C117 O123 1.263 . S
O118 Tb110 2.427 . S
O118 C114 1.275 . S
O119 Tb110 2.513 1_554 S
O119 C114 1.246 1_554 S
O120 Tb110 2.453 . S
O120 C116 1.245 1_565 S
O121 Tb108 2.343 . S
O121 Tb110 2.596 1_545 S
O121 C116 1.259 . S
O122 Tb110 2.374 1_554 S
O122 C117 1.250 1_565 S
O123 Tb108 2.353 1_554 S
O123 C117 1.263 . S
C124 O125 1.275 . S
C124 O126 1.246 . S
O125 Tb108 2.427 . S
O125 C124 1.275 . S
O126 Tb108 2.513 . S
O126 C124 1.246 . S
C127 O111 1.245 1_556 S
C127 O112 1.259 1_545 S
Tb128 O131 2.453 . S
Tb128 O132 2.596 . S
Tb128 O133 2.374 . S
Tb128 O141 2.343 . S
Tb128 O143 2.353 . S
Tb128 O145 2.427 . S
Tb128 O146 2.513 . S
C129 O133 1.251 . S
C129 O135 1.263 . S
Tb130 O132 2.343 1_554 S
Tb130 O135 2.353 1_554 S
Tb130 O138 2.427 . S
Tb130 O139 2.513 . S
Tb130 O140 2.453 . S
Tb130 O141 2.596 1_554 S
Tb130 O142 2.374 . S
O131 Tb128 2.453 . S
O131 C147 1.245 . S
O132 Tb128 2.596 . S
O132 Tb130 2.343 1_556 S
O132 C147 1.259 . S
O133 Tb128 2.374 . S
O133 C129 1.251 . S
C134 O138 1.275 . S
C134 O139 1.246 . S
O135 C129 1.263 . S
O135 Tb130 2.353 1_556 S
C136 O140 1.245 1_556 S
C136 O141 1.259 . S
C137 O142 1.250 1_556 S
C137 O143 1.263 . S
O138 Tb130 2.427 . S
O138 C134 1.275 . S
O139 Tb130 2.513 . S
O139 C134 1.246 . S
O140 Tb130 2.453 . S
O140 C136 1.245 1_554 S
O141 Tb128 2.343 . S
O141 Tb130 2.596 1_556 S
O141 C136 1.259 . S
O142 Tb130 2.374 . S
O142 C137 1.250 1_554 S
O143 Tb128 2.353 . S
O143 C137 1.263 . S
C144 O145 1.275 . S
C144 O146 1.246 . S
O145 Tb128 2.427 . S
O145 C144 1.275 . S
O146 Tb128 2.513 . S
O146 C144 1.246 . S
C147 O131 1.245 . S
C147 O132 1.259 . S
Tb148 O151 2.453 . S
Tb148 O152 2.596 . S
Tb148 O153 2.374 . S
Tb148 O161 2.343 1_455 S
Tb148 O163 2.353 . S
Tb148 O165 2.427 1_455 S
Tb148 O166 2.513 1_455 S
C149 O153 1.251 . S
C149 O155 1.263 . S
Tb150 O152 2.343 1_554 S
Tb150 O155 2.353 1_554 S
Tb150 O158 2.427 . S
Tb150 O159 2.513 . S
Tb150 O160 2.453 1_455 S
Tb150 O161 2.596 1_454 S
Tb150 O162 2.374 . S
O151 Tb148 2.453 . S
O151 C167 1.245 . S
O152 Tb148 2.596 . S
O152 Tb150 2.343 1_556 S
O152 C167 1.259 . S
O153 Tb148 2.374 . S
O153 C149 1.251 . S
C154 O158 1.275 . S
C154 O159 1.246 . S
O155 C149 1.263 . S
O155 Tb150 2.353 1_556 S
C156 O160 1.245 1_556 S
C156 O161 1.259 . S
C157 O162 1.256 1_556 S
C157 O163 1.264 . S
O158 Tb150 2.427 . S
O158 C154 1.275 . S
O159 Tb150 2.513 . S
O159 C154 1.246 . S
O160 Tb150 2.453 1_655 S
O160 C156 1.245 1_554 S
O161 Tb148 2.343 1_655 S
O161 Tb150 2.596 1_656 S
O161 C156 1.259 . S
O162 Tb150 2.374 . S
O162 C157 1.256 1_554 S
O163 Tb148 2.353 . S
O163 C157 1.264 . S
C164 O165 1.275 . S
C164 O166 1.246 . S
O165 Tb148 2.427 1_655 S
O165 C164 1.275 . S
O166 Tb148 2.513 1_655 S
O166 C164 1.246 . S
C167 O151 1.245 . S
C167 O152 1.259 . S
C74 C89 1.871 . S
C124 C85 2.136 . S
C129 C52 1.463 . S
C149 C63 2.100 . S
C97 C30 1.688 1_545 S
C41 C114 1.871 . S
C8 C137 1.319 . S
C19 C157 1.902 1_655 S
C107 C62 2.301 . S
C116 C73 1.776 . S
C147 C84 2.387 . S
C51 C167 1.532 . S
C18 C96 2.045 . S
C127 C29 1.454 1_545 S
C136 C40 1.972 . S
C7 C156 1.390 . S
C60 C94 1.497 . S
C71 C117 1.793 . S
C134 C82 1.814 . S
C154 C49 1.399 . S
C16 C104 0.944 . S
C109 C27 1.150 . S
C144 C38 0.993 . S
C5 C164 1.204 . S
