# Generated by pormake.
# Topology nia, (6,6)-cn, num edge types: 1
# Building blocks:
#     Node 0, Type 0, BuildingBlock: CUKXOW_clean_sbu_0, # of connection points: 6
#     Node 1, Type 0, BuildingBlock: CUKXOW_clean_sbu_0, # of connection points: 6
#     Node 2, Type 1, BuildingBlock: MIDCAF_clean_sbu_0, # of connection points: 6
#     Node 3, Type 1, BuildingBlock: MIDCAF_clean_sbu_0, # of connection points: 6
#     Edge 4, Type (0, 1), None
#     Edge 5, Type (0, 1), None
#     Edge 6, Type (0, 1), None
#     Edge 7, Type (0, 1), None
#     Edge 8, Type (0, 1), None
#     Edge 9, Type (0, 1), None
#     Edge 10, Type (0, 1), None
#     Edge 11, Type (0, 1), None
#     Edge 12, Type (0, 1), None
#     Edge 13, Type (0, 1), None
#     Edge 14, Type (0, 1), None
#     Edge 15, Type (0, 1), None
# Relax obj value: 0.232
# Max RMSD: 0.254
# Mean RMSD: 0.220
data_MOF--net-nia--node1-CUKXOW_clean_sbu_0--node2-MIDCAF_clean_sbu_0--edge1-none
_symmetry_space_group_name_H-M    P1
_symmetry_Int_Tables_number       1
_symmetry_cell_setting            triclinic
loop_
_symmetry_equiv_pos_as_xyz
'x, y, z'
_cell_length_a     11.535302
_cell_length_b     11.535214
_cell_length_c     14.138795
_cell_angle_alpha  83.353174
_cell_angle_beta   83.352571
_cell_angle_gamma 118.09964
loop_
_atom_site_label
_atom_site_type_symbol
_atom_site_fract_x
_atom_site_fract_y
_atom_site_fract_z
_atom_type_partial_charge
Tb0 Tb 0.00699 0.0859 0.09017 0.0
C1 C 0.24454 0.08993 0.94371 0.0
Tb2 Tb 0.94329 0.86329 0.96644 0.0
O3 O 0.11861 0.02135 0.17657 0.0
O4 O -0.02467 0.88934 0.10809 0.0
O5 O 0.204 0.15499 0.99916 0.0
C6 C 0.8803 0.63028 0.91815 0.0
O7 O 0.16162 -0.02602 0.92127 0.0
C8 C 0.88167 0.04514 0.9037 0.0
C9 C 0.70572 0.85926 0.1129 0.0
O10 O 0.91051 0.7377 0.85663 0.0
O11 O 0.8927 0.65643 1.00435 0.0
O12 O 0.83196 0.9283 0.87985 0.0
O13 O -0.02518 0.05948 0.94872 0.0
O14 O 0.74623 0.79429 0.05735 0.0
O15 O 0.78867 -0.02485 0.13542 0.0
C16 C 0.06985 0.3189 0.1385 0.0
O17 O 0.03974 0.21149 0.19999 0.0
O18 O 0.05739 0.29274 0.0523 0.0
C19 C 0.06889 0.90441 0.1529 0.0
Tb20 Tb 0.86389 0.94279 0.4665 0.0
C21 C 0.85985 0.70524 0.61296 0.0
Tb22 Tb 0.08649 0.00649 0.59024 0.0
O23 O 0.92844 0.83118 0.38009 0.0
O24 O 0.06044 -0.02554 0.44859 0.0
O25 O 0.79479 0.74578 0.55751 0.0
C26 C 0.3195 0.06948 0.63852 0.0
O27 O -0.0242 0.78816 0.6354 0.0
C28 C 0.90463 0.06811 0.65298 0.0
C29 C 0.09052 0.24406 0.44377 0.0
O30 O 0.21208 0.03927 0.70004 0.0
O31 O 0.29335 0.05707 0.55232 0.0
O32 O 0.02147 0.11782 0.67683 0.0
O33 O 0.8903 -0.02504 0.60795 0.0
O34 O 0.15549 0.20355 0.49933 0.0
O35 O -0.02537 0.16112 0.42125 0.0
C36 C 0.63088 0.87993 0.41818 0.0
O37 O 0.7383 0.91004 0.35668 0.0
O38 O 0.65705 0.89239 0.50437 0.0
C39 C 0.04538 0.8809 0.40377 0.0
Zn40 Zn 0.30264 0.73191 0.08768 0.0
Zn41 Zn 0.21788 0.64715 0.46899 0.0
Zn42 Zn 0.27118 0.6786 0.27834 0.0
C43 C 0.4946 0.80885 0.40267 0.0
C44 C 0.13774 0.38947 0.42356 0.0
O45 O 0.16401 0.78415 0.22883 0.0
O46 O 0.20777 0.8361 0.06876 0.0
C47 C 0.56031 0.81205 0.13312 0.0
O48 O 0.46742 0.78145 0.31957 0.0
O49 O 0.40356 0.76262 0.47721 0.0
O50 O 0.14786 0.4477 0.49517 0.0
O51 O 0.17029 0.45726 0.33643 0.0
O52 O 0.50208 0.80193 0.06151 0.0
O53 O 0.49253 0.77949 0.22024 0.0
O54 O 0.16833 0.48236 0.2371 0.0
O55 O 0.18717 0.54622 0.07946 0.0
C56 C 0.14093 0.45518 0.154 0.0
O57 O 0.16564 0.78577 0.32785 0.0
O58 O 0.11369 0.74202 0.48791 0.0
C59 C 0.14473 0.83241 0.14908 0.0
C60 C 0.11737 0.80506 0.40759 0.0
Zn61 Zn 0.64761 0.21728 0.96904 0.0
Zn62 Zn 0.7325 0.30217 0.58763 0.0
Zn63 Zn 0.67911 0.27066 0.77834 0.0
C64 C 0.81265 0.55983 0.63312 0.0
C65 C 0.45576 0.14053 0.65401 0.0
O66 O 0.78641 0.16529 0.82786 0.0
O67 O 0.7428 0.11339 0.98793 0.0
C68 C 0.80924 0.49401 0.90266 0.0
O69 O 0.77997 0.49198 0.72023 0.0
O70 O 0.80269 0.50167 0.56148 0.0
O71 O 0.54678 0.18687 0.57946 0.0
O72 O 0.48293 0.16784 0.73713 0.0
O73 O 0.76291 0.40299 0.97721 0.0
O74 O 0.78194 0.46685 0.81954 0.0
O75 O 0.45779 0.16981 0.83644 0.0
O76 O 0.44811 0.14709 0.99519 0.0
C77 C 0.38995 0.13713 0.92355 0.0
O78 O 0.78449 0.16336 0.72881 0.0
O79 O 0.83638 0.20697 0.56874 0.0
C80 C 0.80587 0.11718 0.90759 0.0
C81 C 0.8326 0.1439 0.64908 0.0
loop_
_geom_bond_atom_site_label_1
_geom_bond_atom_site_label_2
_geom_bond_distance
_geom_bond_site_symmetry_2
_ccdc_geom_bond_type
Tb0 O3 2.453 1_545 S
Tb0 O4 2.596 1_545 S
Tb0 O5 2.374 1_554 S
Tb0 O13 2.343 1_454 S
Tb0 O15 2.353 1_445 S
Tb0 O17 2.427 . S
Tb0 O18 2.513 . S
C1 O5 1.251 . S
C1 O7 1.263 . S
Tb2 O4 2.343 1_656 S
Tb2 O7 2.353 1_665 S
Tb2 O10 2.430 . S
Tb2 O11 2.513 . S
Tb2 O12 2.453 1_565 S
Tb2 O13 2.596 1_565 S
Tb2 O14 2.374 1_556 S
O3 Tb0 2.453 1_565 S
O3 C19 1.245 . S
O4 Tb0 2.596 1_565 S
O4 Tb2 2.343 1_454 S
O4 C19 1.259 . S
O5 Tb0 2.374 1_556 S
O5 C1 1.251 . S
C6 O10 1.276 . S
C6 O11 1.246 . S
O7 C1 1.263 . S
O7 Tb2 2.353 1_445 S
C8 O12 1.245 . S
C8 O13 1.259 . S
C9 O14 1.250 . S
C9 O15 1.263 . S
O10 Tb2 2.430 . S
O10 C6 1.276 . S
O11 Tb2 2.513 . S
O11 C6 1.246 . S
O12 Tb2 2.453 1_545 S
O12 C8 1.245 . S
O13 Tb0 2.343 1_656 S
O13 Tb2 2.596 1_545 S
O13 C8 1.259 . S
O14 Tb2 2.374 1_554 S
O14 C9 1.250 . S
O15 Tb0 2.353 1_665 S
O15 C9 1.263 . S
C16 O17 1.275 . S
C16 O18 1.246 . S
O17 Tb0 2.427 . S
O17 C16 1.275 . S
O18 Tb0 2.513 . S
O18 C16 1.246 . S
C19 O3 1.245 . S
C19 O4 1.259 . S
Tb20 O23 2.453 1_655 S
Tb20 O24 2.596 1_655 S
Tb20 O25 2.374 . S
Tb20 O33 2.343 1_565 S
Tb20 O35 2.353 1_665 S
Tb20 O37 2.427 . S
Tb20 O38 2.513 . S
C21 O25 1.251 . S
C21 O27 1.263 . S
Tb22 O24 2.343 1_545 S
Tb22 O27 2.353 1_445 S
Tb22 O30 2.427 . S
Tb22 O31 2.513 . S
Tb22 O32 2.453 1_455 S
Tb22 O33 2.596 1_455 S
Tb22 O34 2.374 . S
O23 Tb20 2.453 1_455 S
O23 C39 1.245 . S
O24 Tb20 2.596 1_455 S
O24 Tb22 2.343 1_565 S
O24 C39 1.259 . S
O25 Tb20 2.374 . S
O25 C21 1.251 . S
C26 O30 1.275 . S
C26 O31 1.246 . S
O27 C21 1.263 . S
O27 Tb22 2.353 1_665 S
C28 O32 1.245 . S
C28 O33 1.259 . S
C29 O34 1.250 . S
C29 O35 1.263 . S
O30 Tb22 2.427 . S
O30 C26 1.275 . S
O31 Tb22 2.513 . S
O31 C26 1.246 . S
O32 Tb22 2.453 1_655 S
O32 C28 1.245 . S
O33 Tb20 2.343 1_545 S
O33 Tb22 2.596 1_655 S
O33 C28 1.259 . S
O34 Tb22 2.374 . S
O34 C29 1.250 . S
O35 Tb20 2.353 1_445 S
O35 C29 1.263 . S
C36 O37 1.275 . S
C36 O38 1.246 . S
O37 Tb20 2.427 . S
O37 C36 1.275 . S
O38 Tb20 2.513 . S
O38 C36 1.246 . S
C39 O23 1.245 . S
C39 O24 1.259 . S
Zn40 O46 1.920 . S
Zn40 O52 1.898 . S
Zn40 O55 1.905 . S
Zn41 O49 1.905 . S
Zn41 O50 1.898 . S
Zn41 O58 1.920 . S
Zn42 O45 2.080 . S
Zn42 O48 2.114 . S
Zn42 O51 2.120 . S
Zn42 O53 2.120 . S
Zn42 O54 2.114 . S
Zn42 O57 2.080 . S
C43 O48 1.166 . S
C43 O49 1.182 . S
C44 O50 1.167 . S
C44 O51 1.299 . S
O45 Zn42 2.080 . S
O45 C59 1.305 . S
O46 Zn40 1.920 . S
O46 C59 1.234 . S
C47 O52 1.167 . S
C47 O53 1.299 . S
O48 Zn42 2.114 . S
O48 C43 1.166 . S
O49 Zn41 1.905 . S
O49 C43 1.182 . S
O50 Zn41 1.898 . S
O50 C44 1.167 . S
O51 Zn42 2.120 . S
O51 C44 1.299 . S
O52 Zn40 1.898 . S
O52 C47 1.167 . S
O53 Zn42 2.120 . S
O53 C47 1.299 . S
O54 Zn42 2.114 . S
O54 C56 1.166 . S
O55 Zn40 1.905 . S
O55 C56 1.182 . S
C56 O54 1.166 . S
C56 O55 1.182 . S
O57 Zn42 2.080 . S
O57 C60 1.305 . S
O58 Zn41 1.920 . S
O58 C60 1.234 . S
C59 O45 1.305 . S
C59 O46 1.234 . S
C60 O57 1.305 . S
C60 O58 1.234 . S
Zn61 O67 1.920 1_554 S
Zn61 O73 1.898 1_554 S
Zn61 O76 1.905 1_554 S
Zn62 O70 1.905 . S
Zn62 O71 1.898 . S
Zn62 O79 1.920 . S
Zn63 O66 2.080 . S
Zn63 O69 2.114 . S
Zn63 O72 2.120 . S
Zn63 O74 2.120 . S
Zn63 O75 2.114 . S
Zn63 O78 2.080 . S
C64 O69 1.166 . S
C64 O70 1.182 . S
C65 O71 1.167 . S
C65 O72 1.299 . S
O66 Zn63 2.080 . S
O66 C80 1.305 . S
O67 Zn61 1.920 1_556 S
O67 C80 1.234 . S
C68 O73 1.167 . S
C68 O74 1.299 . S
O69 Zn63 2.114 . S
O69 C64 1.166 . S
O70 Zn62 1.905 . S
O70 C64 1.182 . S
O71 Zn62 1.898 . S
O71 C65 1.167 . S
O72 Zn63 2.120 . S
O72 C65 1.299 . S
O73 Zn61 1.898 1_556 S
O73 C68 1.167 . S
O74 Zn63 2.120 . S
O74 C68 1.299 . S
O75 Zn63 2.114 . S
O75 C77 1.166 . S
O76 Zn61 1.905 1_556 S
O76 C77 1.182 . S
C77 O75 1.166 . S
C77 O76 1.182 . S
O78 Zn63 2.080 . S
O78 C81 1.305 . S
O79 Zn62 1.920 . S
O79 C81 1.234 . S
C80 O66 1.305 . S
C80 O67 1.234 . S
C81 O78 1.305 . S
C81 O79 1.234 . S
C19 C59 1.451 . S
C26 C65 1.121 . S
C16 C56 1.321 . S
C28 C81 1.922 . S
C9 C47 2.410 . S
C64 C21 1.867 . S
C39 C60 1.451 . S
C77 C1 1.867 . S
C44 C29 2.410 . S
C80 C8 1.922 . S
C43 C36 1.321 . S
C68 C6 1.121 . S
