# Generated by pormake.
# Topology rtl, (3,6)-cn, num edge types: 1
# Building blocks:
#     Node 0, Type 0, BuildingBlock: OLANEW_clean_sbu_2, # of connection points: 3
#     Node 1, Type 0, BuildingBlock: OLANEW_clean_sbu_2, # of connection points: 3
#     Node 2, Type 0, BuildingBlock: OLANEW_clean_sbu_2, # of connection points: 3
#     Node 3, Type 0, BuildingBlock: OLANEW_clean_sbu_2, # of connection points: 3
#     Node 4, Type 1, BuildingBlock: FUNLAD_clean_sbu_0, # of connection points: 6
#     Node 5, Type 1, BuildingBlock: FUNLAD_clean_sbu_0, # of connection points: 6
#     Edge 6, Type (0, 1), BuildingBlock: OJICUG_clean_linker_0, # of connection points: 2
#     Edge 7, Type (0, 1), BuildingBlock: OJICUG_clean_linker_0, # of connection points: 2
#     Edge 8, Type (0, 1), BuildingBlock: OJICUG_clean_linker_0, # of connection points: 2
#     Edge 9, Type (0, 1), BuildingBlock: OJICUG_clean_linker_0, # of connection points: 2
#     Edge 10, Type (0, 1), BuildingBlock: OJICUG_clean_linker_0, # of connection points: 2
#     Edge 11, Type (0, 1), BuildingBlock: OJICUG_clean_linker_0, # of connection points: 2
#     Edge 12, Type (0, 1), BuildingBlock: OJICUG_clean_linker_0, # of connection points: 2
#     Edge 13, Type (0, 1), BuildingBlock: OJICUG_clean_linker_0, # of connection points: 2
#     Edge 14, Type (0, 1), BuildingBlock: OJICUG_clean_linker_0, # of connection points: 2
#     Edge 15, Type (0, 1), BuildingBlock: OJICUG_clean_linker_0, # of connection points: 2
#     Edge 16, Type (0, 1), BuildingBlock: OJICUG_clean_linker_0, # of connection points: 2
#     Edge 17, Type (0, 1), BuildingBlock: OJICUG_clean_linker_0, # of connection points: 2
# Relax obj value: 0.016
# Max RMSD: 0.082
# Mean RMSD: 0.055
data_MOF--net-rtl--node1-OLANEW_clean_sbu_2--node2-FUNLAD_clean_sbu_0--edge1-OJICUG_clean_linker_0
_symmetry_space_group_name_H-M    P1
_symmetry_Int_Tables_number       1
_symmetry_cell_setting            triclinic
loop_
_symmetry_equiv_pos_as_xyz
'x, y, z'
_cell_length_a     33.5852
_cell_length_b     31.503832
_cell_length_c     16.646052
_cell_angle_alpha  86.66974
_cell_angle_beta   94.175258
_cell_angle_gamma 89.747753
loop_
_atom_site_label
_atom_site_type_symbol
_atom_site_fract_x
_atom_site_fract_y
_atom_site_fract_z
_atom_type_partial_charge
O0 O 0.11713 0.79703 0.93168 0.0
Cd1 Cd 0.14273 0.74542 0.03841 0.0
O2 O 0.1424 0.85137 -0.00559 0.0
Cd3 Cd 0.14633 0.8174 0.11251 0.0
O4 O 0.11741 0.83925 0.21631 0.0
C5 C 0.11677 0.87959 0.2164 0.0
O6 O 0.13424 0.90156 0.15953 0.0
C7 C 0.12513 0.83642 0.93192 0.0
C8 C 0.21305 0.70634 -0.00153 0.0
O9 O 0.17871 0.69161 0.97642 0.0
O10 O 0.21419 0.73961 0.03939 0.0
O11 O 0.63453 0.72796 0.76487 0.0
Cd12 Cd 0.64601 0.79887 0.70254 0.0
O13 O 0.61648 0.71325 0.64093 0.0
Cd14 Cd 0.59504 0.67217 0.54672 0.0
O15 O 0.58469 0.63716 0.43843 0.0
C16 C 0.56431 0.65431 0.37777 0.0
O17 O 0.54914 0.69252 0.38256 0.0
C18 C 0.61972 0.70194 0.71563 0.0
C19 C 0.72387 0.8264 0.68504 0.0
O20 O 0.70573 0.83414 0.74784 0.0
O21 O 0.70584 0.80392 0.63208 0.0
O22 O 0.85719 0.16853 0.19396 0.0
Cd23 Cd 0.82154 0.19466 0.0666 0.0
O24 O 0.91273 0.20253 0.17247 0.0
Cd25 Cd 0.89129 0.21833 0.04803 0.0
O26 O 0.90216 0.18353 0.94249 0.0
C27 C 0.93869 0.17367 0.93904 0.0
O28 O 0.96498 0.18745 -0.00634 0.0
C29 C 0.89269 0.17827 0.21763 0.0
C30 C 0.76753 0.26159 0.07633 0.0
O31 O 0.75763 0.22287 0.09171 0.0
O32 O 0.80341 0.26891 0.05821 0.0
O33 O 0.41937 0.27686 0.71432 0.0
Cd34 Cd 0.40103 0.21642 0.63426 0.0
O35 O 0.38947 0.31757 0.61747 0.0
Cd36 Cd 0.37801 0.37545 0.54146 0.0
O37 O 0.387 0.40577 0.42357 0.0
C38 C 0.40859 0.38413 0.38115 0.0
O39 O 0.42252 0.34704 0.41118 0.0
C40 C 0.41062 0.31395 0.68399 0.0
C41 C 0.32201 0.19002 0.63375 0.0
O42 O 0.34881 0.17412 0.68582 0.0
O43 O 0.33236 0.2195 0.58329 0.0
C44 C 0.04157 0.97029 0.45729 0.0
N45 N 0.09455 0.07018 0.57961 0.0
C46 C 0.12947 0.04812 0.57979 0.0
C47 C 0.16588 0.06899 0.58819 0.0
C48 C 0.1665 0.11309 0.59592 0.0
C49 C 0.13009 0.13545 0.59241 0.0
C50 C 0.09418 0.11316 0.58463 0.0
Zn51 Zn 0.04299 0.03591 0.58039 0.0
C52 C 0.9766 0.07349 0.47104 0.0
N53 N 0.93747 0.96055 0.58634 0.0
C54 C 0.93888 0.91741 0.58456 0.0
C55 C 0.90297 0.98115 0.59887 0.0
C56 C 0.86858 0.95822 0.6137 0.0
C57 C 0.86948 0.91365 0.61481 0.0
C58 C 0.90493 0.8932 0.59818 0.0
Zn59 Zn 0.98862 0.99557 0.58119 0.0
O60 O 0.06096 1.00126 0.48556 0.0
C61 C 0.05401 0.95748 0.69049 0.0
O62 O 0.00864 0.95964 0.48581 0.0
H63 H 0.90237 0.01544 0.59969 0.0
H64 H 0.12916 0.01402 0.57533 0.0
H65 H 0.96667 0.90163 0.57504 0.0
O66 O 0.07195 0.99065 0.66592 0.0
O67 O 0.01799 0.95174 0.66534 0.0
H68 H 0.06607 0.13004 0.5847 0.0
O69 O 0.97017 0.03261 0.67662 0.0
O70 O 0.0248 0.07041 0.67447 0.0
O71 O 0.95967 0.03981 0.49648 0.0
O72 O 0.01269 0.08043 0.49543 0.0
C73 C 0.99158 0.06261 0.70355 0.0
H74 H 0.19333 0.05072 0.58923 0.0
H75 H 0.12939 0.16949 0.59833 0.0
H76 H 0.84161 0.97518 0.62501 0.0
H77 H 0.90679 0.85885 0.59872 0.0
C78 C 0.476 0.45438 0.85732 0.0
N79 N 0.58035 0.4487 0.01172 0.0
C80 C 0.57334 0.40621 0.01116 0.0
C81 C 0.60455 0.37693 0.02642 0.0
C82 C 0.64366 0.39115 0.04357 0.0
C83 C 0.65016 0.43526 0.04392 0.0
C84 C 0.6179 0.46363 0.02767 0.0
Zn85 Zn 0.5315 0.48823 0.98893 0.0
C86 C 0.54351 0.55839 0.86536 0.0
N87 N 0.42618 0.5651 0.94044 0.0
C88 C 0.38992 0.54597 0.93881 0.0
C89 C 0.42924 0.60821 0.93832 0.0
C90 C 0.39502 0.63372 0.93789 0.0
C91 C 0.35725 0.6147 0.94014 0.0
C92 C 0.35502 0.57019 0.9388 0.0
Zn93 Zn 0.47632 0.52747 0.96001 0.0
O94 O 0.51014 0.44978 0.89513 0.0
C95 C 0.46562 0.45985 0.08858 0.0
O96 O 0.45408 0.48574 0.87121 0.0
H97 H 0.45836 0.6228 0.9399 0.0
H98 H 0.54335 0.3948 -0.0013 0.0
H99 H 0.3881 0.51167 0.9411 0.0
O100 O 0.50078 0.45023 0.0725 0.0
O101 O 0.44783 0.49121 0.05004 0.0
H102 H 0.62283 0.49753 0.02815 0.0
O103 O 0.49893 0.5677 0.05038 0.0
O104 O 0.55122 0.52652 0.08315 0.0
O105 O 0.50637 0.56405 0.87218 0.0
O106 O 0.56204 0.52829 0.90694 0.0
C107 C 0.53063 0.5592 0.09507 0.0
H108 H 0.598 0.34341 0.02359 0.0
H109 H 0.67971 0.44775 0.05744 0.0
H110 H 0.39822 0.66791 0.93755 0.0
H111 H 0.32678 0.55393 0.94162 0.0
C112 C 0.25113 0.19134 0.57399 0.0
C113 C 0.281 0.17289 0.62891 0.0
H114 H 0.19127 0.18691 0.52062 0.0
C115 C 0.27204 0.13619 0.67598 0.0
H116 H 0.2571 0.21968 0.53696 0.0
C117 C 0.23459 0.11739 0.66618 0.0
C118 C 0.20513 0.13504 0.60958 0.0
H119 H 0.29429 0.12124 0.71901 0.0
H120 H 0.22876 0.08874 0.70249 0.0
C121 C 0.21344 0.17269 0.56474 0.0
C122 C 0.28748 0.69704 0.01397 0.0
C123 C 0.25023 0.68488 0.97904 0.0
H124 H 0.35021 0.68423 0.03016 0.0
C125 C 0.24872 0.65117 0.9272 0.0
H126 H 0.28969 0.72285 0.05425 0.0
C127 C 0.28355 0.62939 0.91231 0.0
C128 C 0.32073 0.64054 0.94938 0.0
H129 H 0.22054 0.64128 0.89865 0.0
H130 H 0.28125 0.60351 0.8722 0.0
C131 C 0.32229 0.67505 -0.00043 0.0
C132 C 0.78448 0.83462 0.60567 0.0
C133 C 0.76315 0.84561 0.67124 0.0
H134 H 0.83505 0.84746 0.53655 0.0
C135 C 0.7783 0.87748 0.72035 0.0
H136 H 0.7736 0.81017 0.56673 0.0
C137 C 0.81311 0.89904 0.7025 0.0
C138 C 0.83382 0.8889 0.63571 0.0
H139 H 0.76265 0.88673 0.77133 0.0
H140 H 0.82371 0.92393 0.74071 0.0
C141 C 0.81966 0.85588 0.58841 0.0
C142 C 0.7008 0.289 0.10808 0.0
C143 C 0.73765 0.29639 0.07529 0.0
H144 H 0.64296 0.31343 0.12656 0.0
C145 C 0.74463 0.33644 0.03737 0.0
H146 H 0.69465 0.25866 0.13854 0.0
C147 C 0.71462 0.36775 0.02908 0.0
C148 C 0.67711 0.35977 0.05917 0.0
H149 H 0.77273 0.34309 0.01136 0.0
H150 H 0.72034 0.39753 -0.0037 0.0
C151 C 0.67103 0.32037 0.10066 0.0
C152 C 0.06853 0.88168 0.32524 0.0
C153 C 0.09664 0.90208 0.27789 0.0
H154 H 0.0281 0.88763 0.41848 0.0
C155 C 0.10506 0.9451 0.28822 0.0
H156 H 0.06124 0.84859 0.3181 0.0
C157 C 0.08651 0.96711 0.34555 0.0
C158 C 0.05855 0.94689 0.39323 0.0
H159 H 0.12648 0.96179 0.25267 0.0
H160 H 0.09421 1.00011 0.35265 0.0
C161 C 0.04932 0.90406 0.38205 0.0
C162 C 0.56577 0.64782 0.71434 0.0
C163 C 0.60338 0.66107 0.74563 0.0
H164 H 0.51701 0.6049 0.72843 0.0
C165 C 0.6228 0.63752 0.81134 0.0
H166 H 0.54985 0.66589 0.66462 0.0
C167 C 0.60445 0.60196 0.8465 0.0
C168 C 0.56578 0.59027 0.81825 0.0
H169 H 0.6517 0.64728 0.83678 0.0
H170 H 0.61949 0.58523 0.89891 0.0
C171 C 0.5469 0.61308 0.75102 0.0
C172 C 0.89267 0.124 0.33347 0.0
C173 C 0.91259 0.15632 0.29103 0.0
H174 H 0.89727 0.0725 0.4231 0.0
C175 C 0.95314 0.16354 0.31322 0.0
H176 H 0.86147 0.11757 0.31816 0.0
C177 C 0.97378 0.13752 0.37354 0.0
C178 C 0.95434 0.10367 0.41257 0.0
H179 H 0.9694 0.1882 0.28182 0.0
H180 H 0.00528 0.14303 0.38751 0.0
C181 C 0.91332 0.09792 0.39334 0.0
C182 C 0.40748 0.39057 0.71872 0.0
C183 C 0.42797 0.35143 0.7226 0.0
H184 H 0.40652 0.45418 0.75861 0.0
C185 C 0.46529 0.34758 0.76623 0.0
H186 H 0.37843 0.39425 0.68629 0.0
C187 C 0.48156 0.38178 0.80646 0.0
C188 C 0.46059 0.42057 0.80534 0.0
H189 H 0.48191 0.31789 0.76978 0.0
H190 H 0.51009 0.37723 0.84074 0.0
C191 C 0.42353 0.4248 0.76026 0.0
C192 C 0.5292 0.64654 0.24161 0.0
C193 C 0.55732 0.63127 0.30326 0.0
H194 H 0.49875 0.63576 0.12725 0.0
C195 C 0.57828 0.59341 0.29359 0.0
H196 H 0.51266 0.67568 0.24715 0.0
C197 C 0.57064 0.57078 0.22451 0.0
C198 C 0.54159 0.58533 0.16405 0.0
H199 H 0.60036 0.58098 0.33976 0.0
H200 H 0.58675 0.54129 0.2196 0.0
C201 C 0.52126 0.62368 0.17288 0.0
C202 C 0.92405 0.12001 0.83526 0.0
C203 C 0.95159 0.14541 0.87792 0.0
H204 H 0.91523 0.07302 0.74748 0.0
C205 C 0.99222 0.14253 0.86403 0.0
H206 H 0.89257 0.12135 0.84524 0.0
C207 C 0.00507 0.11523 0.80805 0.0
C208 C 0.97767 0.08969 0.7655 0.0
H209 H 0.01417 0.16163 0.89603 0.0
H210 H 0.03658 0.11412 0.79819 0.0
C211 C 0.93704 0.0921 0.77993 0.0
C212 C 0.40204 0.43832 0.26449 0.0
C213 C 0.42025 0.40133 0.30188 0.0
H214 H 0.4016 0.48544 0.16642 0.0
C215 C 0.45104 0.38168 0.26439 0.0
H216 H 0.37802 0.45397 0.29163 0.0
C217 C 0.4647 0.39979 0.1931 0.0
C218 C 0.44753 0.43765 0.1573 0.0
H219 H 0.46558 0.35302 0.29147 0.0
H220 H 0.48943 0.3847 0.1672 0.0
C221 C 0.41539 0.45617 0.19254 0.0
C222 C 0.12547 0.90729 0.8556 0.0
C223 C 0.11031 0.86585 0.86386 0.0
H224 H 0.11981 0.96877 0.79333 0.0
C225 C 0.07813 0.85415 0.81131 0.0
H226 H 0.15031 0.91718 0.89521 0.0
C227 C 0.0602 0.88389 0.75434 0.0
C228 C 0.07458 0.92567 0.74772 0.0
H229 H 0.06567 0.82254 0.8164 0.0
H230 H 0.03474 0.87428 0.71608 0.0
C231 C 0.10801 0.93683 0.79743 0.0
loop_
_geom_bond_atom_site_label_1
_geom_bond_atom_site_label_2
_geom_bond_distance
_geom_bond_site_symmetry_2
_ccdc_geom_bond_type
O0 Cd1 2.300 1_556 S
O0 C7 1.275 . S
Cd1 O0 2.300 1_554 S
Cd1 O9 2.381 1_554 S
Cd1 O10 2.378 . S
O2 Cd3 2.385 . S
O2 C7 1.255 1_554 S
Cd3 O2 2.385 . S
Cd3 O4 2.317 . S
O4 Cd3 2.317 . S
O4 C5 1.232 . S
C5 O4 1.232 . S
C5 O6 1.218 . S
O6 C5 1.218 . S
C7 O0 1.275 . S
C7 O2 1.255 1_556 S
C8 O9 1.258 1_554 S
C8 O10 1.256 . S
O9 Cd1 2.381 1_556 S
O9 C8 1.258 1_556 S
O10 Cd1 2.378 . S
O10 C8 1.256 . S
O11 Cd12 2.300 . S
O11 C18 1.275 . S
Cd12 O11 2.300 . S
Cd12 O20 2.381 . S
Cd12 O21 2.378 . S
O13 Cd14 2.385 . S
O13 C18 1.255 . S
Cd14 O13 2.385 . S
Cd14 O15 2.317 . S
O15 Cd14 2.317 . S
O15 C16 1.232 . S
C16 O15 1.232 . S
C16 O17 1.218 . S
O17 C16 1.218 . S
C18 O11 1.275 . S
C18 O13 1.255 . S
C19 O20 1.258 . S
C19 O21 1.256 . S
O20 Cd12 2.381 . S
O20 C19 1.258 . S
O21 Cd12 2.378 . S
O21 C19 1.256 . S
O22 Cd23 2.300 . S
O22 C29 1.275 . S
Cd23 O22 2.300 . S
Cd23 O31 2.381 . S
Cd23 O32 2.378 . S
O24 Cd25 2.385 . S
O24 C29 1.255 . S
Cd25 O24 2.385 . S
Cd25 O26 2.317 1_554 S
O26 Cd25 2.317 1_556 S
O26 C27 1.232 . S
C27 O26 1.232 . S
C27 O28 1.218 . S
O28 C27 1.218 . S
C29 O22 1.275 . S
C29 O24 1.255 . S
C30 O31 1.258 . S
C30 O32 1.256 . S
O31 Cd23 2.381 . S
O31 C30 1.258 . S
O32 Cd23 2.378 . S
O32 C30 1.256 . S
O33 Cd34 2.300 . S
O33 C40 1.275 . S
Cd34 O33 2.300 . S
Cd34 O42 2.381 . S
Cd34 O43 2.378 . S
O35 Cd36 2.385 . S
O35 C40 1.255 . S
Cd36 O35 2.385 . S
Cd36 O37 2.317 . S
O37 Cd36 2.317 . S
O37 C38 1.232 . S
C38 O37 1.232 . S
C38 O39 1.218 . S
O39 C38 1.218 . S
C40 O33 1.275 . S
C40 O35 1.255 . S
C41 O42 1.258 . S
C41 O43 1.256 . S
O42 Cd34 2.381 . S
O42 C41 1.258 . S
O43 Cd34 2.378 . S
O43 C41 1.256 . S
C44 O60 1.251 . S
C44 O62 1.254 . S
N45 C46 1.333 . S
N45 C50 1.307 . S
N45 Zn51 2.020 . S
C46 N45 1.333 . S
C46 C47 1.379 . S
C46 H64 0.952 . S
C47 C46 1.379 . S
C47 C48 1.390 . S
C47 H74 0.949 . S
C48 C47 1.390 . S
C48 C49 1.357 . S
C49 C48 1.357 . S
C49 C50 1.370 . S
C49 H75 0.950 . S
C50 N45 1.307 . S
C50 C49 1.370 . S
C50 H68 0.948 . S
Zn51 N45 2.020 . S
Zn51 O60 2.039 1_545 S
Zn51 O66 2.034 1_545 S
Zn51 O70 2.025 . S
Zn51 O72 2.024 . S
C52 O71 1.246 . S
C52 O72 1.249 1_655 S
N53 C54 1.307 . S
N53 C55 1.333 . S
N53 Zn59 2.020 . S
C54 N53 1.307 . S
C54 C58 1.370 . S
C54 H65 0.948 . S
C55 N53 1.333 . S
C55 C56 1.379 . S
C55 H63 0.952 . S
C56 C55 1.379 . S
C56 C57 1.390 . S
C56 H76 0.949 . S
C57 C56 1.390 . S
C57 C58 1.357 . S
C58 C54 1.370 . S
C58 C57 1.357 . S
C58 H77 0.950 . S
Zn59 N53 2.020 . S
Zn59 O62 2.025 1_655 S
Zn59 O67 2.024 1_655 S
Zn59 O69 2.039 1_565 S
Zn59 O71 2.034 1_565 S
O60 C44 1.251 . S
O60 Zn51 2.039 1_565 S
C61 O66 1.246 . S
C61 O67 1.249 . S
O62 C44 1.254 . S
O62 Zn59 2.025 1_455 S
H63 C55 0.952 . S
H64 C46 0.952 . S
H65 C54 0.948 . S
O66 Zn51 2.034 1_565 S
O66 C61 1.246 . S
O67 Zn59 2.024 1_455 S
O67 C61 1.249 . S
H68 C50 0.948 . S
O69 Zn59 2.039 1_545 S
O69 C73 1.251 . S
O70 Zn51 2.025 . S
O70 C73 1.254 1_455 S
O71 C52 1.246 . S
O71 Zn59 2.034 1_545 S
O72 Zn51 2.024 . S
O72 C52 1.249 1_455 S
C73 O69 1.251 . S
C73 O70 1.254 1_655 S
H74 C47 0.949 . S
H75 C49 0.950 . S
H76 C56 0.949 . S
H77 C58 0.950 . S
C78 O94 1.251 . S
C78 O96 1.254 . S
N79 C80 1.333 . S
N79 C84 1.307 . S
N79 Zn85 2.020 . S
C80 N79 1.333 . S
C80 C81 1.379 . S
C80 H98 0.952 1_554 S
C81 C80 1.379 . S
C81 C82 1.390 . S
C81 H108 0.949 . S
C82 C81 1.390 . S
C82 C83 1.357 . S
C83 C82 1.357 . S
C83 C84 1.370 . S
C83 H109 0.950 . S
C84 N79 1.307 . S
C84 C83 1.370 . S
C84 H102 0.948 . S
Zn85 N79 2.020 . S
Zn85 O94 2.039 1_554 S
Zn85 O100 2.034 . S
Zn85 O104 2.025 . S
Zn85 O106 2.024 1_554 S
C86 O105 1.246 . S
C86 O106 1.249 . S
N87 C88 1.307 1_554 S
N87 C89 1.333 . S
N87 Zn93 2.020 . S
C88 N87 1.307 1_556 S
C88 C92 1.370 . S
C88 H99 0.948 . S
C89 N87 1.333 . S
C89 C90 1.379 . S
C89 H97 0.952 . S
C90 C89 1.379 . S
C90 C91 1.390 . S
C90 H110 0.949 . S
C91 C90 1.390 . S
C91 C92 1.357 1_554 S
C92 C88 1.370 . S
C92 C91 1.357 1_556 S
C92 H111 0.950 . S
Zn93 N87 2.020 . S
Zn93 O96 2.025 1_554 S
Zn93 O101 2.024 . S
Zn93 O103 2.039 . S
Zn93 O105 2.034 1_554 S
O94 C78 1.251 . S
O94 Zn85 2.039 1_556 S
C95 O100 1.246 . S
C95 O101 1.249 . S
O96 C78 1.254 . S
O96 Zn93 2.025 1_556 S
H97 C89 0.952 . S
H98 C80 0.952 1_556 S
H99 C88 0.948 . S
O100 Zn85 2.034 . S
O100 C95 1.246 . S
O101 Zn93 2.024 . S
O101 C95 1.249 . S
H102 C84 0.948 . S
O103 Zn93 2.039 . S
O103 C107 1.251 . S
O104 Zn85 2.025 . S
O104 C107 1.254 . S
O105 C86 1.246 . S
O105 Zn93 2.034 1_556 S
O106 Zn85 2.024 1_556 S
O106 C86 1.249 . S
C107 O103 1.251 . S
C107 O104 1.254 . S
H108 C81 0.949 . S
H109 C83 0.950 . S
H110 C90 0.949 . S
H111 C92 0.950 . S
C112 C113 1.387 . S
C112 H116 0.950 . S
C112 C121 1.390 . S
C113 C112 1.387 . S
C113 C115 1.387 . S
H114 C121 0.950 . S
C115 C113 1.387 . S
C115 C117 1.390 . S
C115 H119 0.950 . S
H116 C112 0.950 . S
C117 C115 1.390 . S
C117 C118 1.387 . S
C117 H120 0.950 . S
C118 C117 1.387 . S
C118 C121 1.387 . S
H119 C115 0.950 . S
H120 C117 0.950 . S
C121 C112 1.390 . S
C121 H114 0.950 . S
C121 C118 1.387 . S
C122 C123 1.387 . S
C122 H126 0.950 . S
C122 C131 1.390 . S
C123 C122 1.387 . S
C123 C125 1.387 1_554 S
H124 C131 0.950 . S
C125 C123 1.387 1_556 S
C125 C127 1.390 . S
C125 H129 0.950 . S
H126 C122 0.950 . S
C127 C125 1.390 . S
C127 C128 1.387 1_556 S
C127 H130 0.950 . S
C128 C127 1.387 1_554 S
C128 C131 1.387 . S
H129 C125 0.950 . S
H130 C127 0.950 . S
C131 C122 1.390 . S
C131 H124 0.950 . S
C131 C128 1.387 . S
C132 C133 1.387 . S
C132 H136 0.950 . S
C132 C141 1.390 . S
C133 C132 1.387 . S
C133 C135 1.387 . S
H134 C141 0.950 . S
C135 C133 1.387 . S
C135 C137 1.390 . S
C135 H139 0.950 . S
H136 C132 0.950 . S
C137 C135 1.390 . S
C137 C138 1.387 . S
C137 H140 0.950 . S
C138 C137 1.387 . S
C138 C141 1.387 . S
H139 C135 0.950 . S
H140 C137 0.950 . S
C141 C132 1.390 . S
C141 H134 0.950 . S
C141 C138 1.387 . S
C142 C143 1.387 . S
C142 H146 0.950 . S
C142 C151 1.390 . S
C143 C142 1.387 . S
C143 C145 1.387 . S
H144 C151 0.950 . S
C145 C143 1.387 . S
C145 C147 1.390 1_554 S
C145 H149 0.950 1_554 S
H146 C142 0.950 . S
C147 C145 1.390 1_556 S
C147 C148 1.387 1_556 S
C147 H150 0.950 . S
C148 C147 1.387 1_554 S
C148 C151 1.387 . S
H149 C145 0.950 1_556 S
H150 C147 0.950 . S
C151 C142 1.390 . S
C151 H144 0.950 . S
C151 C148 1.387 . S
C152 C153 1.387 . S
C152 H156 0.950 . S
C152 C161 1.390 . S
C153 C152 1.387 . S
C153 C155 1.387 . S
H154 C161 0.950 . S
C155 C153 1.387 . S
C155 C157 1.390 . S
C155 H159 0.950 . S
H156 C152 0.950 . S
C157 C155 1.390 . S
C157 C158 1.387 . S
C157 H160 0.950 . S
C158 C157 1.387 . S
C158 C161 1.387 . S
H159 C155 0.950 . S
H160 C157 0.950 . S
C161 C152 1.390 . S
C161 H154 0.950 . S
C161 C158 1.387 . S
C162 C163 1.387 . S
C162 H166 0.950 . S
C162 C171 1.390 . S
C163 C162 1.387 . S
C163 C165 1.387 . S
H164 C171 0.950 . S
C165 C163 1.387 . S
C165 C167 1.390 . S
C165 H169 0.950 . S
H166 C162 0.950 . S
C167 C165 1.390 . S
C167 C168 1.387 . S
C167 H170 0.950 . S
C168 C167 1.387 . S
C168 C171 1.387 . S
H169 C165 0.950 . S
H170 C167 0.950 . S
C171 C162 1.390 . S
C171 H164 0.950 . S
C171 C168 1.387 . S
C172 C173 1.387 . S
C172 H176 0.950 . S
C172 C181 1.390 . S
C173 C172 1.387 . S
C173 C175 1.387 . S
H174 C181 0.950 . S
C175 C173 1.387 . S
C175 C177 1.390 . S
C175 H179 0.950 . S
H176 C172 0.950 . S
C177 C175 1.390 . S
C177 C178 1.387 . S
C177 H180 0.950 . S
C178 C177 1.387 . S
C178 C181 1.387 . S
H179 C175 0.950 . S
H180 C177 0.950 . S
C181 C172 1.390 . S
C181 H174 0.950 . S
C181 C178 1.387 . S
C182 C183 1.387 . S
C182 H186 0.950 . S
C182 C191 1.390 . S
C183 C182 1.387 . S
C183 C185 1.387 . S
H184 C191 0.950 . S
C185 C183 1.387 . S
C185 C187 1.390 . S
C185 H189 0.950 . S
H186 C182 0.950 . S
C187 C185 1.390 . S
C187 C188 1.387 . S
C187 H190 0.950 . S
C188 C187 1.387 . S
C188 C191 1.387 . S
H189 C185 0.950 . S
H190 C187 0.950 . S
C191 C182 1.390 . S
C191 H184 0.950 . S
C191 C188 1.387 . S
C192 C193 1.387 . S
C192 H196 0.950 . S
C192 C201 1.390 . S
C193 C192 1.387 . S
C193 C195 1.387 . S
H194 C201 0.950 . S
C195 C193 1.387 . S
C195 C197 1.390 . S
C195 H199 0.950 . S
H196 C192 0.950 . S
C197 C195 1.390 . S
C197 C198 1.387 . S
C197 H200 0.950 . S
C198 C197 1.387 . S
C198 C201 1.387 . S
H199 C195 0.950 . S
H200 C197 0.950 . S
C201 C192 1.390 . S
C201 H194 0.950 . S
C201 C198 1.387 . S
C202 C203 1.387 . S
C202 H206 0.950 . S
C202 C211 1.390 . S
C203 C202 1.387 . S
C203 C205 1.387 . S
H204 C211 0.950 . S
C205 C203 1.387 . S
C205 C207 1.390 . S
C205 H209 0.950 . S
H206 C202 0.950 . S
C207 C205 1.390 . S
C207 C208 1.387 . S
C207 H210 0.950 . S
C208 C207 1.387 . S
C208 C211 1.387 . S
H209 C205 0.950 . S
H210 C207 0.950 . S
C211 C202 1.390 . S
C211 H204 0.950 . S
C211 C208 1.387 . S
C212 C213 1.387 . S
C212 H216 0.950 . S
C212 C221 1.390 . S
C213 C212 1.387 . S
C213 C215 1.387 . S
H214 C221 0.950 . S
C215 C213 1.387 . S
C215 C217 1.390 . S
C215 H219 0.950 . S
H216 C212 0.950 . S
C217 C215 1.390 . S
C217 C218 1.387 . S
C217 H220 0.950 . S
C218 C217 1.387 . S
C218 C221 1.387 . S
H219 C215 0.950 . S
H220 C217 0.950 . S
C221 C212 1.390 . S
C221 H214 0.950 . S
C221 C218 1.387 . S
C222 C223 1.387 . S
C222 H226 0.950 . S
C222 C231 1.390 . S
C223 C222 1.387 . S
C223 C225 1.387 . S
H224 C231 0.950 . S
C225 C223 1.387 . S
C225 C227 1.390 . S
C225 H229 0.950 . S
H226 C222 0.950 . S
C227 C225 1.390 . S
C227 C228 1.387 . S
C227 H230 0.950 . S
C228 C227 1.387 . S
C228 C231 1.387 . S
H229 C225 0.950 . S
H230 C227 0.950 . S
C231 C222 1.390 . S
C231 H224 0.950 . S
C231 C228 1.387 . S
C118 C48 1.529 . S
C113 C41 1.505 . S
C123 C8 1.503 . S
C128 C91 1.517 . S
C133 C19 1.513 . S
C138 C57 1.542 . S
C143 C30 1.523 . S
C148 C82 1.520 . S
C158 C44 1.569 . S
C153 C5 1.333 . S
C168 C86 1.646 . S
C163 C18 1.597 . S
C173 C29 1.551 . S
C178 C52 1.572 . S
C183 C40 1.588 . S
C188 C78 1.651 . S
C198 C107 1.416 . S
C193 C16 1.167 . S
C208 C73 1.428 . S
C203 C27 1.279 . S
C218 C95 1.407 . S
C213 C38 1.164 . S
C223 C7 1.374 . S
C228 C61 1.413 . S
