# Generated by pormake.
# Topology bcu-b, (8,8)-cn, num edge types: 1
# Building blocks:
#     Node 0, Type 0, BuildingBlock: TAGTUT_clean_sbu_1, # of connection points: 8
#     Node 1, Type 1, BuildingBlock: TAGTUT_clean_sbu_3, # of connection points: 8
#     Edge 2, Type (0, 1), BuildingBlock: FUNLAD_clean_linker_0, # of connection points: 2
#     Edge 3, Type (0, 1), BuildingBlock: FUNLAD_clean_linker_0, # of connection points: 2
#     Edge 4, Type (0, 1), BuildingBlock: FUNLAD_clean_linker_0, # of connection points: 2
#     Edge 5, Type (0, 1), BuildingBlock: FUNLAD_clean_linker_0, # of connection points: 2
#     Edge 6, Type (0, 1), BuildingBlock: FUNLAD_clean_linker_0, # of connection points: 2
#     Edge 7, Type (0, 1), BuildingBlock: FUNLAD_clean_linker_0, # of connection points: 2
#     Edge 8, Type (0, 1), BuildingBlock: FUNLAD_clean_linker_0, # of connection points: 2
#     Edge 9, Type (0, 1), BuildingBlock: FUNLAD_clean_linker_0, # of connection points: 2
# Relax obj value: 0.019
# Max RMSD: 0.088
# Mean RMSD: 0.078
data_MOF--net-bcu-b--node1-TAGTUT_clean_sbu_1--node2-TAGTUT_clean_sbu_3--edge1-FUNLAD_clean_linker_0
_symmetry_space_group_name_H-M    P1
_symmetry_Int_Tables_number       1
_symmetry_cell_setting            triclinic
loop_
_symmetry_equiv_pos_as_xyz
'x, y, z'
_cell_length_a     22.179912
_cell_length_b     21.294241
_cell_length_c     24.677618
_cell_angle_alpha  91.256705
_cell_angle_beta   91.576542
_cell_angle_gamma 107.32664
loop_
_atom_site_label
_atom_site_type_symbol
_atom_site_fract_x
_atom_site_fract_y
_atom_site_fract_z
_atom_type_partial_charge
C0 C 0.88268 0.16439 0.03293 0.0
C1 C 0.957 0.14863 0.87484 0.0
C2 C 0.90546 0.89224 0.9158 0.0
Mg3 Mg 1.01319 0.16127 -0.00903 0.0
O4 O 0.97523 0.07078 0.00123 0.0
Mg5 Mg 0.89115 0.02851 0.96313 0.0
Mg6 Mg 0.01982 0.00782 0.9751 0.0
O7 O 0.06398 0.94439 0.94937 0.0
Mg8 Mg 0.02556 0.85505 0.9644 0.0
Mg9 Mg 0.14935 0.98735 -0.01507 0.0
C10 C 0.13362 0.12308 0.03764 0.0
C11 C 0.12619 0.08407 0.8919 0.0
O12 O 0.85681 0.10723 0.0103 0.0
O13 O 0.9423 0.19359 0.03173 0.0
O14 O 0.91491 0.09747 0.89038 0.0
O15 O 1.00355 0.18004 0.90605 0.0
O16 O 0.1069 0.16776 0.02716 0.0
O17 O 0.1062 0.06177 0.02681 0.0
C18 C 0.91183 0.93063 0.05666 0.0
O19 O 0.96961 0.94218 0.04331 0.0
O20 O 0.87429 0.95825 0.03342 0.0
O21 O 0.18045 0.90599 0.9369 0.0
O22 O 0.09294 0.81972 0.92178 0.0
O23 O 0.13008 0.92189 0.05853 0.0
C24 C 0.15224 0.84784 0.91671 0.0
O25 O 0.03977 0.84052 0.05014 0.0
O26 O 0.93106 0.84761 0.92933 0.0
C27 C 0.0891 0.87287 0.07795 0.0
O28 O 0.93431 0.95388 0.92306 0.0
O29 O 0.06908 0.07337 0.90665 0.0
O30 O 0.16396 0.05605 0.91408 0.0
C31 C 0.623 0.61928 0.553 0.0
C32 C 0.70311 0.40387 0.54332 0.0
C33 C 0.61686 0.3851 0.3826 0.0
Mg34 Mg 0.50128 0.64224 0.48958 0.0
Mg35 Mg 0.37772 0.51394 0.46053 0.0
O36 O 0.46416 0.55538 0.44946 0.0
Mg37 Mg 0.5231 0.50794 0.47791 0.0
O38 O 0.58559 0.46513 0.50692 0.0
Mg39 Mg 0.66286 0.51844 0.46937 0.0
Mg40 Mg 0.56467 0.37338 0.49577 0.0
C41 C 0.41751 0.39697 0.40411 0.0
O42 O 0.45171 0.44586 0.53617 0.0
O43 O 0.42784 0.67773 0.43686 0.0
O44 O 0.47131 0.34776 0.5309 0.0
O45 O 0.43093 0.6186 0.55783 0.0
O46 O 0.3462 0.58624 0.41865 0.0
O47 O 0.35596 0.52297 0.54483 0.0
O48 O 0.59731 0.56608 0.42169 0.0
O49 O 0.57682 0.66283 0.42477 0.0
C50 C 0.60987 0.62631 0.40827 0.0
C51 C 0.37288 0.64825 0.41476 0.0
O52 O 0.47631 0.42515 0.41591 0.0
O53 O 0.71824 0.46116 0.52217 0.0
O54 O 0.37322 0.41918 0.42131 0.0
O55 O 0.65237 0.44161 0.39934 0.0
O56 O 0.6471 0.36352 0.53835 0.0
O57 O 0.57329 0.35062 0.41164 0.0
O58 O 0.5654 0.59273 0.53714 0.0
O59 O 0.66749 0.59722 0.5364 0.0
C60 C 0.38315 0.57415 0.57424 0.0
C61 C 0.43772 0.38433 0.54639 0.0
C62 C 0.23411 0.2084 0.06695 0.0
C63 C 0.19555 0.1428 0.06703 0.0
C64 C 0.28632 0.2302 0.10287 0.0
C65 C 0.30004 0.18719 0.14021 0.0
C66 C 0.26483 0.12025 0.13711 0.0
C67 C 0.21313 0.09819 0.10056 0.0
C68 C 0.34523 0.21563 0.18597 0.0
C69 C 0.33242 0.19617 0.23707 0.0
C70 C 0.35977 0.24019 0.28452 0.0
C71 C 0.31992 0.24407 0.32684 0.0
C72 C 0.3396 0.2936 0.36711 0.0
C73 C 0.40008 0.33922 0.36641 0.0
H74 H 0.45408 0.2802 0.2543 0.0
C75 C 0.44187 0.33204 0.32657 0.0
C76 C 0.42183 0.28302 0.28578 0.0
H77 H 0.48882 0.36651 0.32511 0.0
H78 H 0.22223 0.24364 0.04095 0.0
H79 H 0.31317 0.2819 0.10416 0.0
H80 H 0.27533 0.08563 0.16459 0.0
H81 H 0.18451 0.04725 0.10127 0.0
H82 H 0.38152 0.26169 0.17927 0.0
H83 H 0.29189 0.15389 0.24403 0.0
H84 H 0.27202 0.21128 0.32693 0.0
H85 H 0.30677 0.29745 0.39781 0.0
C86 C 0.78096 0.16281 0.07646 0.0
C87 C 0.84275 0.1976 0.0624 0.0
C88 C 0.74498 0.19381 0.10691 0.0
C89 C 0.77007 0.26039 0.12366 0.0
C90 C 0.83073 0.29561 0.10771 0.0
C91 C 0.86685 0.26458 0.07785 0.0
C92 C 0.73582 0.2949 0.15881 0.0
C93 C 0.69379 0.26423 0.19539 0.0
C94 C 0.66904 0.29943 0.2383 0.0
C95 C 0.61749 0.26363 0.26797 0.0
C96 C 0.59822 0.29224 0.31335 0.0
C97 C 0.63045 0.35737 0.3303 0.0
H98 H 0.73996 0.39525 0.23344 0.0
C99 C 0.67997 0.39423 0.29909 0.0
C100 C 0.69929 0.36568 0.25391 0.0
H101 H 0.7058 0.44461 0.31078 0.0
H102 H 0.76076 0.11129 0.06482 0.0
H103 H 0.69771 0.16549 0.11708 0.0
H104 H 0.85108 0.34705 0.11966 0.0
H105 H 0.91394 0.29315 0.06723 0.0
H106 H 0.7501 0.3481 0.15713 0.0
H107 H 0.67964 0.21091 0.19661 0.0
H108 H 0.59324 0.21258 0.25707 0.0
H109 H 0.55964 0.26247 0.33627 0.0
C110 C 0.92335 0.86816 0.13971 0.0
C111 C 0.88567 0.88027 0.09683 0.0
C112 C 0.89664 0.8211 0.178 0.0
C113 C 0.83232 0.78453 0.17297 0.0
C114 C 0.79574 0.79474 0.12877 0.0
C115 C 0.82184 0.84268 0.09153 0.0
C116 C 0.80059 0.7376 0.21413 0.0
C117 C 0.81024 0.75206 0.26756 0.0
C118 C 0.76438 0.71673 0.30733 0.0
C119 C 0.73511 0.6483 0.30307 0.0
C120 C 0.68631 0.61807 0.33737 0.0
C121 C 0.66531 0.65605 0.37556 0.0
H122 H 0.76814 0.80639 0.35209 0.0
C123 C 0.69648 0.72386 0.38119 0.0
C124 C 0.74608 0.75369 0.34788 0.0
H125 H 0.68198 0.75414 0.41094 0.0
H126 H 0.97288 0.896 0.1443 0.0
H127 H 0.9261 0.81338 0.21138 0.0
H128 H 0.74618 0.76697 0.12397 0.0
H129 H 0.79199 0.85003 0.05826 0.0
H130 H 0.76073 0.69619 0.20023 0.0
H131 H 0.84547 0.79755 0.28118 0.0
H132 H 0.74912 0.61846 0.27266 0.0
H133 H 0.66341 0.56558 0.33257 0.0
C134 C 0.15419 0.89092 0.16432 0.0
C135 C 0.1037 0.85053 0.13187 0.0
C136 C 0.1767 0.86653 0.21014 0.0
C137 C 0.14951 0.80085 0.22445 0.0
C138 C 0.09566 0.76224 0.19478 0.0
C139 C 0.07296 0.78675 0.14881 0.0
C140 C 0.17774 0.77014 0.26809 0.0
C141 C 0.24013 0.79 0.28195 0.0
C142 C 0.2714 0.75411 0.31922 0.0
C143 C 0.33236 0.78646 0.34104 0.0
C144 C 0.36533 0.75289 0.37284 0.0
C145 C 0.33816 0.68591 0.38311 0.0
H146 H 0.1983 0.65947 0.31295 0.0
C147 C 0.27691 0.65384 0.36167 0.0
C148 C 0.2441 0.68726 0.33007 0.0
H149 H 0.25428 0.60221 0.36848 0.0
H150 H 0.17808 0.94091 0.15325 0.0
H151 H 0.21624 0.89898 0.23341 0.0
H152 H 0.07302 0.71182 0.20552 0.0
H153 H 0.03359 0.75459 0.12506 0.0
H154 H 0.14662 0.72702 0.28615 0.0
H155 H 0.27094 0.83308 0.2635 0.0
H156 H 0.35491 0.83778 0.33295 0.0
H157 H 0.41236 0.77915 0.38859 0.0
C158 C 0.15825 0.74844 0.86318 0.0
C159 C 0.18836 0.81225 0.88473 0.0
C160 C 0.19043 0.71592 0.83019 0.0
C161 C 0.25392 0.74628 0.81803 0.0
C162 C 0.28433 0.80951 0.84044 0.0
C163 C 0.2521 0.84207 0.8735 0.0
C164 C 0.28881 0.71634 0.77932 0.0
C165 C 0.27007 0.65263 0.76176 0.0
C166 C 0.30246 0.62695 0.7182 0.0
C167 C 0.26762 0.57309 0.685 0.0
C168 C 0.29464 0.55287 0.63966 0.0
C169 C 0.35714 0.58624 0.62682 0.0
H170 H 0.39609 0.69587 0.73379 0.0
C171 C 0.39333 0.6367 0.66247 0.0
C172 C 0.36654 0.65653 0.70776 0.0
H173 H 0.44211 0.66251 0.65455 0.0
H174 H 0.10913 0.72379 0.87082 0.0
H175 H 0.16433 0.66807 0.81315 0.0
H176 H 0.3331 0.83439 0.83166 0.0
H177 H 0.27686 0.89111 0.88931 0.0
H178 H 0.33092 0.74981 0.76309 0.0
H179 H 0.22756 0.61873 0.77685 0.0
H180 H 0.21847 0.54851 0.69268 0.0
H181 H 0.26567 0.5134 0.61331 0.0
C182 C 0.11438 0.14446 0.80779 0.0
C183 C 0.15174 0.13436 0.85172 0.0
C184 C 0.14106 0.19108 0.76918 0.0
C185 C 0.20484 0.22921 0.77511 0.0
C186 C 0.24086 0.22113 0.82045 0.0
C187 C 0.21491 0.17358 0.85793 0.0
C188 C 0.23686 0.27552 0.73381 0.0
C189 C 0.23045 0.25898 0.68062 0.0
C190 C 0.27791 0.29411 0.64193 0.0
C191 C 0.29734 0.25718 0.60198 0.0
C192 C 0.34873 0.28678 0.57033 0.0
C193 C 0.38085 0.35422 0.57733 0.0
H194 H 0.29331 0.39234 0.67693 0.0
C195 C 0.35911 0.39203 0.61513 0.0
C196 C 0.30808 0.36228 0.6472 0.0
H197 H 0.3831 0.44405 0.62149 0.0
H198 H 0.06532 0.11524 0.80257 0.0
H199 H 0.11211 0.1972 0.73481 0.0
H200 H 0.28999 0.25017 0.82591 0.0
H201 H 0.24436 0.16768 0.89205 0.0
H202 H 0.27506 0.31825 0.74818 0.0
H203 H 0.19687 0.21237 0.66709 0.0
H204 H 0.27465 0.20466 0.597 0.0
H205 H 0.3639 0.25665 0.54089 0.0
C206 C 0.97519 0.24191 0.81051 0.0
C207 C 0.94734 0.17507 0.82129 0.0
C208 C 0.95689 0.26913 0.76391 0.0
C209 C 0.91085 0.22968 0.72698 0.0
C210 C 0.88702 0.16197 0.73579 0.0
C211 C 0.90457 0.13505 0.78255 0.0
C212 C 0.88304 0.25682 0.68078 0.0
C213 C 0.87931 0.31896 0.67999 0.0
C214 C 0.83716 0.33966 0.64067 0.0
C215 C 0.85009 0.4064 0.62814 0.0
C216 C 0.80779 0.42758 0.59516 0.0
C217 C 0.75105 0.38248 0.57499 0.0
H218 H 0.76771 0.24321 0.62964 0.0
C219 C 0.73865 0.3157 0.58718 0.0
C220 C 0.7809 0.2946 0.61956 0.0
H221 H 0.6955 0.27942 0.57244 0.0
H222 H 1.00875 0.27396 0.83934 0.0
H223 H 0.97792 0.3211 0.75767 0.0
H224 H 0.85211 0.13017 0.70775 0.0
H225 H 0.88284 0.08319 0.78922 0.0
H226 H 0.8588 0.2219 0.64875 0.0
H227 H 0.90424 0.35495 0.711 0.0
H228 H 0.89263 0.44235 0.64447 0.0
H229 H 0.81866 0.47941 0.58679 0.0
C230 C 0.82253 0.91625 0.85618 0.0
C231 C 0.84243 0.87179 0.88819 0.0
C232 C 0.76931 0.89382 0.82134 0.0
C233 C 0.73503 0.82661 0.81826 0.0
C234 C 0.75097 0.78369 0.85443 0.0
C235 C 0.80455 0.80592 0.88879 0.0
C236 C 0.68921 0.7979 0.77299 0.0
C237 C 0.70102 0.81829 0.72203 0.0
C238 C 0.67552 0.77392 0.67448 0.0
C239 C 0.71685 0.77108 0.63313 0.0
C240 C 0.699 0.72184 0.5926 0.0
C241 C 0.6388 0.67562 0.59192 0.0
H242 H 0.58074 0.73189 0.70312 0.0
C243 C 0.59552 0.68148 0.63081 0.0
C244 C 0.61391 0.73001 0.67218 0.0
H245 H 0.54867 0.64652 0.63088 0.0
H246 H 0.85028 0.96751 0.85528 0.0
H247 H 0.75703 0.92838 0.79489 0.0
H248 H 0.72485 0.73179 0.85317 0.0
H249 H 0.81801 0.77075 0.91379 0.0
H250 H 0.65417 0.75089 0.77944 0.0
H251 H 0.74043 0.86172 0.71516 0.0
H252 H 0.76447 0.80462 0.63397 0.0
H253 H 0.73287 0.71893 0.56256 0.0
loop_
_geom_bond_atom_site_label_1
_geom_bond_atom_site_label_2
_geom_bond_distance
_geom_bond_site_symmetry_2
_ccdc_geom_bond_type
C0 O12 1.241 . S
C0 O13 1.280 . S
C1 O14 1.277 . S
C1 O15 1.245 . S
C2 O26 1.247 . S
C2 O28 1.289 . S
Mg3 O4 1.926 . S
Mg3 O13 1.984 . S
Mg3 O15 1.988 1_554 S
Mg3 O16 2.061 1_655 S
O4 Mg3 1.926 . S
O4 Mg5 1.986 . S
O4 Mg6 1.922 1_655 S
Mg5 O4 1.986 . S
Mg5 O12 2.042 . S
Mg5 O14 2.041 1_554 S
Mg5 O20 2.038 1_545 S
Mg5 O28 2.238 1_544 S
Mg6 O4 1.922 1_455 S
Mg6 O7 1.912 1_544 S
Mg6 O17 2.116 . S
Mg6 O19 2.093 1_445 S
Mg6 O28 2.097 1_444 S
Mg6 O29 2.064 1_554 S
O7 Mg6 1.912 1_566 S
O7 Mg8 1.926 . S
O7 Mg9 1.986 . S
Mg8 O7 1.926 . S
Mg8 O22 1.984 . S
Mg8 O25 1.988 1_556 S
Mg8 O26 2.061 1_455 S
Mg9 O7 1.986 . S
Mg9 O17 2.238 1_566 S
Mg9 O21 2.042 . S
Mg9 O23 2.042 1_556 S
Mg9 O30 2.037 1_565 S
C10 O16 1.247 . S
C10 O17 1.289 . S
C11 O29 1.245 . S
C11 O30 1.274 . S
O12 C0 1.241 . S
O12 Mg5 2.042 . S
O13 C0 1.280 . S
O13 Mg3 1.984 . S
O14 C1 1.277 . S
O14 Mg5 2.041 1_556 S
O15 C1 1.245 . S
O15 Mg3 1.988 1_556 S
O16 Mg3 2.061 1_455 S
O16 C10 1.247 . S
O17 Mg6 2.116 . S
O17 Mg9 2.238 1_544 S
O17 C10 1.289 . S
C18 O19 1.245 . S
C18 O20 1.274 . S
O19 Mg6 2.093 1_665 S
O19 C18 1.245 . S
O20 Mg5 2.038 1_565 S
O20 C18 1.274 . S
O21 Mg9 2.042 . S
O21 C24 1.241 . S
O22 Mg8 1.984 . S
O22 C24 1.280 . S
O23 Mg9 2.042 1_554 S
O23 C27 1.277 . S
C24 O21 1.241 . S
C24 O22 1.280 . S
O25 Mg8 1.988 1_554 S
O25 C27 1.245 . S
O26 C2 1.247 . S
O26 Mg8 2.061 1_655 S
C27 O23 1.277 . S
C27 O25 1.245 . S
O28 C2 1.289 . S
O28 Mg5 2.238 1_566 S
O28 Mg6 2.097 1_666 S
O29 Mg6 2.064 1_556 S
O29 C11 1.245 . S
O30 Mg9 2.037 1_545 S
O30 C11 1.274 . S
C31 O58 1.312 . S
C31 O59 1.208 . S
C32 O53 1.331 . S
C32 O56 1.244 . S
C33 O55 1.264 . S
C33 O57 1.273 . S
Mg34 O36 1.936 . S
Mg34 O43 2.081 . S
Mg34 O45 2.023 . S
Mg34 O49 2.031 . S
Mg34 O58 2.291 . S
Mg35 O36 1.963 . S
Mg35 O46 1.942 . S
Mg35 O47 1.955 . S
Mg35 O54 1.986 . S
O36 Mg34 1.936 . S
O36 Mg35 1.963 . S
O36 Mg37 1.915 . S
Mg37 O36 1.915 . S
Mg37 O38 1.915 . S
Mg37 O42 2.013 . S
Mg37 O48 2.114 . S
Mg37 O52 2.013 . S
Mg37 O58 2.114 . S
O38 Mg37 1.915 . S
O38 Mg39 1.936 . S
O38 Mg40 1.963 . S
Mg39 O38 1.936 . S
Mg39 O48 2.291 . S
Mg39 O53 2.081 . S
Mg39 O55 2.023 . S
Mg39 O59 2.031 . S
Mg40 O38 1.963 . S
Mg40 O44 1.986 . S
Mg40 O56 1.942 . S
Mg40 O57 1.955 . S
C41 O52 1.191 . S
C41 O54 1.307 . S
O42 Mg37 2.013 . S
O42 C61 1.191 . S
O43 Mg34 2.081 . S
O43 C51 1.331 . S
O44 Mg40 1.986 . S
O44 C61 1.307 . S
O45 Mg34 2.023 . S
O45 C60 1.264 . S
O46 Mg35 1.942 . S
O46 C51 1.244 . S
O47 Mg35 1.955 . S
O47 C60 1.273 . S
O48 Mg37 2.114 . S
O48 Mg39 2.291 . S
O48 C50 1.312 . S
O49 Mg34 2.031 . S
O49 C50 1.208 . S
C50 O48 1.312 . S
C50 O49 1.208 . S
C51 O43 1.331 . S
C51 O46 1.244 . S
O52 Mg37 2.013 . S
O52 C41 1.191 . S
O53 C32 1.331 . S
O53 Mg39 2.081 . S
O54 Mg35 1.986 . S
O54 C41 1.307 . S
O55 C33 1.264 . S
O55 Mg39 2.023 . S
O56 C32 1.244 . S
O56 Mg40 1.942 . S
O57 C33 1.273 . S
O57 Mg40 1.955 . S
O58 C31 1.312 . S
O58 Mg34 2.291 . S
O58 Mg37 2.114 . S
O59 C31 1.208 . S
O59 Mg39 2.031 . S
C60 O45 1.264 . S
C60 O47 1.273 . S
C61 O42 1.191 . S
C61 O44 1.307 . S
C62 C63 1.386 . S
C62 C64 1.383 . S
C62 H78 0.951 . S
C63 C62 1.386 . S
C63 C67 1.383 . S
C64 C62 1.383 . S
C64 C65 1.402 . S
C64 H79 0.951 . S
C65 C64 1.402 . S
C65 C66 1.375 . S
C65 C68 1.481 . S
C66 C65 1.375 . S
C66 C67 1.367 . S
C66 H80 0.951 . S
C67 C63 1.383 . S
C67 C66 1.367 . S
C67 H81 0.950 . S
C68 C65 1.481 . S
C68 C69 1.297 . S
C68 H82 0.950 . S
C69 C68 1.297 . S
C69 C70 1.479 . S
C69 H83 0.950 . S
C70 C69 1.479 . S
C70 C71 1.375 . S
C70 C76 1.404 . S
C71 C70 1.375 . S
C71 C72 1.369 . S
C71 H84 0.950 . S
C72 C71 1.369 . S
C72 C73 1.392 . S
C72 H85 0.951 . S
C73 C72 1.392 . S
C73 C75 1.384 . S
H74 C76 0.949 . S
C75 C73 1.384 . S
C75 C76 1.385 . S
C75 H77 0.950 . S
C76 C70 1.404 . S
C76 H74 0.949 . S
C76 C75 1.385 . S
H77 C75 0.950 . S
H78 C62 0.951 . S
H79 C64 0.951 . S
H80 C66 0.951 . S
H81 C67 0.950 . S
H82 C68 0.950 . S
H83 C69 0.950 . S
H84 C71 0.950 . S
H85 C72 0.951 . S
C86 C87 1.386 . S
C86 C88 1.383 . S
C86 H102 0.951 . S
C87 C86 1.386 . S
C87 C91 1.383 . S
C88 C86 1.383 . S
C88 C89 1.402 . S
C88 H103 0.951 . S
C89 C88 1.402 . S
C89 C90 1.375 . S
C89 C92 1.481 . S
C90 C89 1.375 . S
C90 C91 1.367 . S
C90 H104 0.951 . S
C91 C87 1.383 . S
C91 C90 1.367 . S
C91 H105 0.950 . S
C92 C89 1.481 . S
C92 C93 1.297 . S
C92 H106 0.950 . S
C93 C92 1.297 . S
C93 C94 1.479 . S
C93 H107 0.950 . S
C94 C93 1.479 . S
C94 C95 1.375 . S
C94 C100 1.404 . S
C95 C94 1.375 . S
C95 C96 1.369 . S
C95 H108 0.950 . S
C96 C95 1.369 . S
C96 C97 1.392 . S
C96 H109 0.951 . S
C97 C96 1.392 . S
C97 C99 1.384 . S
H98 C100 0.949 . S
C99 C97 1.384 . S
C99 C100 1.385 . S
C99 H101 0.950 . S
C100 C94 1.404 . S
C100 H98 0.949 . S
C100 C99 1.385 . S
H101 C99 0.950 . S
H102 C86 0.951 . S
H103 C88 0.951 . S
H104 C90 0.951 . S
H105 C91 0.950 . S
H106 C92 0.950 . S
H107 C93 0.950 . S
H108 C95 0.950 . S
H109 C96 0.951 . S
C110 C111 1.386 . S
C110 C112 1.383 . S
C110 H126 0.951 . S
C111 C110 1.386 . S
C111 C115 1.383 . S
C112 C110 1.383 . S
C112 C113 1.402 . S
C112 H127 0.951 . S
C113 C112 1.402 . S
C113 C114 1.375 . S
C113 C116 1.481 . S
C114 C113 1.375 . S
C114 C115 1.367 . S
C114 H128 0.951 . S
C115 C111 1.383 . S
C115 C114 1.367 . S
C115 H129 0.950 . S
C116 C113 1.481 . S
C116 C117 1.297 . S
C116 H130 0.950 . S
C117 C116 1.297 . S
C117 C118 1.479 . S
C117 H131 0.950 . S
C118 C117 1.479 . S
C118 C119 1.375 . S
C118 C124 1.404 . S
C119 C118 1.375 . S
C119 C120 1.369 . S
C119 H132 0.950 . S
C120 C119 1.369 . S
C120 C121 1.392 . S
C120 H133 0.951 . S
C121 C120 1.392 . S
C121 C123 1.384 . S
H122 C124 0.949 . S
C123 C121 1.384 . S
C123 C124 1.385 . S
C123 H125 0.950 . S
C124 C118 1.404 . S
C124 H122 0.949 . S
C124 C123 1.385 . S
H125 C123 0.950 . S
H126 C110 0.951 . S
H127 C112 0.951 . S
H128 C114 0.951 . S
H129 C115 0.950 . S
H130 C116 0.950 . S
H131 C117 0.950 . S
H132 C119 0.950 . S
H133 C120 0.951 . S
C134 C135 1.386 . S
C134 C136 1.383 . S
C134 H150 0.951 . S
C135 C134 1.386 . S
C135 C139 1.383 . S
C136 C134 1.383 . S
C136 C137 1.402 . S
C136 H151 0.951 . S
C137 C136 1.402 . S
C137 C138 1.375 . S
C137 C140 1.481 . S
C138 C137 1.375 . S
C138 C139 1.367 . S
C138 H152 0.951 . S
C139 C135 1.383 . S
C139 C138 1.367 . S
C139 H153 0.950 . S
C140 C137 1.481 . S
C140 C141 1.297 . S
C140 H154 0.950 . S
C141 C140 1.297 . S
C141 C142 1.479 . S
C141 H155 0.950 . S
C142 C141 1.479 . S
C142 C143 1.375 . S
C142 C148 1.404 . S
C143 C142 1.375 . S
C143 C144 1.369 . S
C143 H156 0.950 . S
C144 C143 1.369 . S
C144 C145 1.392 . S
C144 H157 0.951 . S
C145 C144 1.392 . S
C145 C147 1.384 . S
H146 C148 0.949 . S
C147 C145 1.384 . S
C147 C148 1.385 . S
C147 H149 0.950 . S
C148 C142 1.404 . S
C148 H146 0.949 . S
C148 C147 1.385 . S
H149 C147 0.950 . S
H150 C134 0.951 . S
H151 C136 0.951 . S
H152 C138 0.951 . S
H153 C139 0.950 . S
H154 C140 0.950 . S
H155 C141 0.950 . S
H156 C143 0.950 . S
H157 C144 0.951 . S
C158 C159 1.386 . S
C158 C160 1.383 . S
C158 H174 0.951 . S
C159 C158 1.386 . S
C159 C163 1.383 . S
C160 C158 1.383 . S
C160 C161 1.402 . S
C160 H175 0.951 . S
C161 C160 1.402 . S
C161 C162 1.375 . S
C161 C164 1.481 . S
C162 C161 1.375 . S
C162 C163 1.367 . S
C162 H176 0.951 . S
C163 C159 1.383 . S
C163 C162 1.367 . S
C163 H177 0.950 . S
C164 C161 1.481 . S
C164 C165 1.297 . S
C164 H178 0.950 . S
C165 C164 1.297 . S
C165 C166 1.479 . S
C165 H179 0.950 . S
C166 C165 1.479 . S
C166 C167 1.375 . S
C166 C172 1.404 . S
C167 C166 1.375 . S
C167 C168 1.369 . S
C167 H180 0.950 . S
C168 C167 1.369 . S
C168 C169 1.392 . S
C168 H181 0.951 . S
C169 C168 1.392 . S
C169 C171 1.384 . S
H170 C172 0.949 . S
C171 C169 1.384 . S
C171 C172 1.385 . S
C171 H173 0.950 . S
C172 C166 1.404 . S
C172 H170 0.949 . S
C172 C171 1.385 . S
H173 C171 0.950 . S
H174 C158 0.951 . S
H175 C160 0.951 . S
H176 C162 0.951 . S
H177 C163 0.950 . S
H178 C164 0.950 . S
H179 C165 0.950 . S
H180 C167 0.950 . S
H181 C168 0.951 . S
C182 C183 1.386 . S
C182 C184 1.383 . S
C182 H198 0.951 . S
C183 C182 1.386 . S
C183 C187 1.383 . S
C184 C182 1.383 . S
C184 C185 1.402 . S
C184 H199 0.951 . S
C185 C184 1.402 . S
C185 C186 1.375 . S
C185 C188 1.481 . S
C186 C185 1.375 . S
C186 C187 1.367 . S
C186 H200 0.951 . S
C187 C183 1.383 . S
C187 C186 1.367 . S
C187 H201 0.950 . S
C188 C185 1.481 . S
C188 C189 1.297 . S
C188 H202 0.950 . S
C189 C188 1.297 . S
C189 C190 1.479 . S
C189 H203 0.950 . S
C190 C189 1.479 . S
C190 C191 1.375 . S
C190 C196 1.404 . S
C191 C190 1.375 . S
C191 C192 1.369 . S
C191 H204 0.950 . S
C192 C191 1.369 . S
C192 C193 1.392 . S
C192 H205 0.951 . S
C193 C192 1.392 . S
C193 C195 1.384 . S
H194 C196 0.949 . S
C195 C193 1.384 . S
C195 C196 1.385 . S
C195 H197 0.950 . S
C196 C190 1.404 . S
C196 H194 0.949 . S
C196 C195 1.385 . S
H197 C195 0.950 . S
H198 C182 0.951 . S
H199 C184 0.951 . S
H200 C186 0.951 . S
H201 C187 0.950 . S
H202 C188 0.950 . S
H203 C189 0.950 . S
H204 C191 0.950 . S
H205 C192 0.951 . S
C206 C207 1.386 . S
C206 C208 1.383 . S
C206 H222 0.951 . S
C207 C206 1.386 . S
C207 C211 1.383 . S
C208 C206 1.383 . S
C208 C209 1.402 . S
C208 H223 0.951 . S
C209 C208 1.402 . S
C209 C210 1.375 . S
C209 C212 1.481 . S
C210 C209 1.375 . S
C210 C211 1.367 . S
C210 H224 0.951 . S
C211 C207 1.383 . S
C211 C210 1.367 . S
C211 H225 0.950 . S
C212 C209 1.481 . S
C212 C213 1.297 . S
C212 H226 0.950 . S
C213 C212 1.297 . S
C213 C214 1.479 . S
C213 H227 0.950 . S
C214 C213 1.479 . S
C214 C215 1.375 . S
C214 C220 1.404 . S
C215 C214 1.375 . S
C215 C216 1.369 . S
C215 H228 0.950 . S
C216 C215 1.369 . S
C216 C217 1.392 . S
C216 H229 0.951 . S
C217 C216 1.392 . S
C217 C219 1.384 . S
H218 C220 0.949 . S
C219 C217 1.384 . S
C219 C220 1.385 . S
C219 H221 0.950 . S
C220 C214 1.404 . S
C220 H218 0.949 . S
C220 C219 1.385 . S
H221 C219 0.950 . S
H222 C206 0.951 . S
H223 C208 0.951 . S
H224 C210 0.951 . S
H225 C211 0.950 . S
H226 C212 0.950 . S
H227 C213 0.950 . S
H228 C215 0.950 . S
H229 C216 0.951 . S
C230 C231 1.386 . S
C230 C232 1.383 . S
C230 H246 0.951 . S
C231 C230 1.386 . S
C231 C235 1.383 . S
C232 C230 1.383 . S
C232 C233 1.402 . S
C232 H247 0.951 . S
C233 C232 1.402 . S
C233 C234 1.375 . S
C233 C236 1.481 . S
C234 C233 1.375 . S
C234 C235 1.367 . S
C234 H248 0.951 . S
C235 C231 1.383 . S
C235 C234 1.367 . S
C235 H249 0.950 . S
C236 C233 1.481 . S
C236 C237 1.297 . S
C236 H250 0.950 . S
C237 C236 1.297 . S
C237 C238 1.479 . S
C237 H251 0.950 . S
C238 C237 1.479 . S
C238 C239 1.375 . S
C238 C244 1.404 . S
C239 C238 1.375 . S
C239 C240 1.369 . S
C239 H252 0.950 . S
C240 C239 1.369 . S
C240 C241 1.392 . S
C240 H253 0.951 . S
C241 C240 1.392 . S
C241 C243 1.384 . S
H242 C244 0.949 . S
C243 C241 1.384 . S
C243 C244 1.385 . S
C243 H245 0.950 . S
C244 C238 1.404 . S
C244 H242 0.949 . S
C244 C243 1.385 . S
H245 C243 0.950 . S
H246 C230 0.951 . S
H247 C232 0.951 . S
H248 C234 0.951 . S
H249 C235 0.950 . S
H250 C236 0.950 . S
H251 C237 0.950 . S
H252 C239 0.950 . S
H253 C240 0.951 . S
C63 C10 0.986 . S
C73 C41 0.973 . S
C87 C0 1.692 . S
C97 C33 1.660 . S
C111 C18 1.354 . S
C121 C50 1.307 . S
C135 C27 1.697 . S
C145 C51 1.654 . S
C159 C24 1.699 . S
C169 C60 1.657 . S
C193 C61 1.355 . S
C183 C11 1.322 . S
C207 C1 1.700 . S
C217 C32 1.657 . S
C241 C31 0.926 . S
C231 C2 0.982 . S
