# Generated by pormake.
# Topology nia, (6,6)-cn, num edge types: 1
# Building blocks:
#     Node 0, Type 0, BuildingBlock: BETDAH_clean_sbu_0, # of connection points: 6
#     Node 1, Type 0, BuildingBlock: BETDAH_clean_sbu_0, # of connection points: 6
#     Node 2, Type 1, BuildingBlock: MIDCAF_clean_sbu_0, # of connection points: 6
#     Node 3, Type 1, BuildingBlock: MIDCAF_clean_sbu_0, # of connection points: 6
#     Edge 4, Type (0, 1), BuildingBlock: OJICUG_clean_linker_0, # of connection points: 2
#     Edge 5, Type (0, 1), BuildingBlock: OJICUG_clean_linker_0, # of connection points: 2
#     Edge 6, Type (0, 1), BuildingBlock: OJICUG_clean_linker_0, # of connection points: 2
#     Edge 7, Type (0, 1), BuildingBlock: OJICUG_clean_linker_0, # of connection points: 2
#     Edge 8, Type (0, 1), BuildingBlock: OJICUG_clean_linker_0, # of connection points: 2
#     Edge 9, Type (0, 1), BuildingBlock: OJICUG_clean_linker_0, # of connection points: 2
#     Edge 10, Type (0, 1), BuildingBlock: OJICUG_clean_linker_0, # of connection points: 2
#     Edge 11, Type (0, 1), BuildingBlock: OJICUG_clean_linker_0, # of connection points: 2
#     Edge 12, Type (0, 1), BuildingBlock: OJICUG_clean_linker_0, # of connection points: 2
#     Edge 13, Type (0, 1), BuildingBlock: OJICUG_clean_linker_0, # of connection points: 2
#     Edge 14, Type (0, 1), BuildingBlock: OJICUG_clean_linker_0, # of connection points: 2
#     Edge 15, Type (0, 1), BuildingBlock: OJICUG_clean_linker_0, # of connection points: 2
# Relax obj value: 0.385
# Max RMSD: 0.284
# Mean RMSD: 0.268
data_MOF--net-nia--node1-BETDAH_clean_sbu_0--node2-MIDCAF_clean_sbu_0--edge1-OJICUG_clean_linker_0
_symmetry_space_group_name_H-M    P1
_symmetry_Int_Tables_number       1
_symmetry_cell_setting            triclinic
loop_
_symmetry_equiv_pos_as_xyz
'x, y, z'
_cell_length_a     18.966586
_cell_length_b     22.24589
_cell_length_c     26.279308
_cell_angle_alpha  61.359782
_cell_angle_beta   106.37209
_cell_angle_gamma 128.84476
loop_
_atom_site_label
_atom_site_type_symbol
_atom_site_fract_x
_atom_site_fract_y
_atom_site_fract_z
_atom_type_partial_charge
Ho0 Ho 0.10945 0.06883 0.06361 0.0
Ho1 Ho 0.98005 0.90801 0.03713 0.0
C2 C 0.95529 0.05858 0.9684 0.0
C3 C 0.22304 0.21475 0.0671 0.0
C4 C 0.21836 0.25388 0.09647 0.0
C5 C 0.24293 0.33638 0.06572 0.0
C6 C 0.23628 0.37366 0.09249 0.0
C7 C 0.2055 0.32897 0.15052 0.0
C8 C 0.17978 0.24595 0.18111 0.0
C9 C 0.18535 0.20828 0.15409 0.0
C10 C 0.95655 0.94064 0.13395 0.0
C11 C 0.14294 0.9275 0.12311 0.0
C12 C 0.85475 0.7637 1.03392 0.0
C13 C 0.85678 0.72214 1.00526 0.0
C14 C 0.83306 0.63993 0.03664 0.0
C15 C 0.84006 0.60225 1.01032 0.0
C16 C 0.87047 0.6463 0.95221 0.0
C17 C 0.89451 0.72862 0.92092 0.0
C18 C 0.88833 0.76651 0.94731 0.0
C19 C 0.13679 0.01809 0.97114 0.0
O20 O 0.03603 0.10901 0.98587 0.0
O21 O 0.91612 -0.02316 0.98762 0.0
O22 O 0.22743 0.15084 0.10072 0.0
O23 O 0.16681 0.20179 1.02483 0.0
O24 O 0.03264 -0.00441 0.14952 0.0
O25 O 0.96528 0.96225 0.08122 0.0
O26 O 0.05542 0.87386 0.1167 0.0
O27 O 0.18338 0.00974 0.09604 0.0
O28 O 0.85849 0.83185 0.99897 0.0
O29 O 0.90714 0.77204 0.07863 0.0
O30 O 0.06897 0.94684 0.96839 0.0
O31 O 0.11401 0.02599 1.0067 0.0
H32 H 0.2676 0.37203 1.02111 0.0
H33 H 0.25803 0.43842 0.0684 0.0
H34 H 0.15609 0.21064 0.22591 0.0
H35 H 0.16434 0.14378 0.17838 0.0
H36 H 0.80949 0.60512 0.08144 0.0
H37 H 0.8197 0.53797 1.03497 0.0
H38 H 0.91814 0.7636 0.87612 0.0
H39 H 0.90868 0.83071 0.92222 0.0
Ho40 Ho 0.99858 0.02397 0.54673 0.0
Ho41 Ho 0.10387 0.96086 0.55259 0.0
C42 C 0.94651 0.94459 0.45892 0.0
C43 C 0.94447 0.1107 0.53686 0.0
C44 C 0.91635 0.12762 0.57221 0.0
C45 C 0.86055 0.15491 0.54708 0.0
C46 C 0.83033 0.17022 0.57899 0.0
C47 C 0.85498 0.15825 0.63701 0.0
C48 C 0.91244 0.13214 0.66208 0.0
C49 C 0.94265 0.11646 0.62989 0.0
C50 C 0.92217 0.85821 0.61755 0.0
C51 C 0.15668 0.04174 0.64034 0.0
C52 C 0.1589 0.87584 0.56014 0.0
C53 C 0.16844 0.84678 0.5244 0.0
C54 C 0.17566 0.77936 0.55244 0.0
C55 C 0.18972 0.75254 0.52044 0.0
C56 C 0.19657 0.79245 0.45943 0.0
C57 C 0.18823 0.85973 0.43119 0.0
C58 C 0.17388 0.88655 0.4635 0.0
C59 C 0.18089 0.12695 0.48341 0.0
O60 O 0.95613 0.00557 0.46399 0.0
O61 O 0.99008 0.91131 0.49292 0.0
O62 O 0.02981 0.14044 0.53756 0.0
O63 O 0.88972 0.03466 0.53804 0.0
O64 O 0.87706 0.88942 0.58776 0.0
O65 O 1.00545 0.91735 0.61212 0.0
O66 O 0.15197 -0.01608 0.63388 0.0
O67 O 0.11016 0.07228 0.60747 0.0
O68 O 0.07642 0.84089 0.57393 0.0
O69 O 0.21199 0.95703 0.5464 0.0
O70 O 0.22561 0.0957 0.51444 0.0
O71 O 0.09765 0.0679 0.48745 0.0
H72 H 0.84003 0.16427 0.50256 0.0
H73 H 0.78793 0.19216 0.55791 0.0
H74 H 0.93256 0.1225 0.70664 0.0
H75 H 0.98585 0.09528 0.64997 0.0
H76 H 0.17215 0.7483 0.59938 0.0
H77 H 0.19791 0.7019 0.54381 0.0
H78 H 0.19293 0.89157 0.38433 0.0
H79 H 0.16823 0.93879 0.44112 0.0
Zn80 Zn 0.42618 0.74266 0.19149 0.0
Zn81 Zn 0.43175 0.62188 0.40946 0.0
Zn82 Zn 0.43012 0.68233 0.29819 0.0
C83 C 0.6114 0.7497 0.36988 0.0
C84 C 0.34936 0.48349 0.38853 0.0
O85 O 0.35991 0.74748 0.2644 0.0
O86 O 0.40414 0.82679 0.17227 0.0
C87 C 0.60044 0.78734 0.21189 0.0
O88 O 0.57451 0.75121 0.32032 0.0
O89 O 0.56356 0.69995 0.41598 0.0
O90 O 0.3831 0.50484 0.43068 0.0
O91 O 0.35686 0.53927 0.33687 0.0
O92 O 0.545 0.78135 0.17127 0.0
O93 O 0.57397 0.76251 0.26288 0.0
O94 O 0.3512 0.57448 0.2759 0.0
O95 O 0.32116 0.63432 0.18581 0.0
C96 C 0.30956 0.56907 0.22859 0.0
O97 O 0.36294 0.71579 0.32563 0.0
O98 O 0.3506 0.64231 0.42056 0.0
C99 C 0.36208 0.80386 0.21475 0.0
C100 C 0.33432 0.68958 0.37609 0.0
Zn101 Zn 0.67468 0.24054 0.91082 0.0
Zn102 Zn 0.65647 0.35998 0.69111 0.0
Zn103 Zn 0.66649 0.30112 0.80248 0.0
C104 C 0.75707 0.50198 0.71139 0.0
C105 C 0.47964 0.24165 0.73424 0.0
O106 O 0.73868 0.23913 0.83244 0.0
O107 O 0.70188 0.161 0.92585 0.0
C108 C 0.78716 0.41491 0.87217 0.0
O109 O 0.74021 0.44423 0.76356 0.0
O110 O 0.72888 0.48201 0.66863 0.0
O111 O 0.52395 0.29893 0.68722 0.0
O112 O 0.52078 0.23156 0.78261 0.0
O113 O 0.77715 0.35033 0.91495 0.0
O114 O 0.74563 0.40891 0.82493 0.0
O115 O 0.52574 0.2179 0.84175 0.0
O116 O 0.55478 0.19738 0.93377 0.0
C117 C 0.49915 0.19077 0.89327 0.0
O118 O 0.72537 0.26379 0.77201 0.0
O119 O 0.70516 0.31183 0.67748 0.0
C120 C 0.74045 0.18425 0.88148 0.0
C121 C 0.73131 0.2723 0.72107 0.0
C122 C 0.29413 0.95225 0.1447 0.0
C123 C 0.1999 0.89658 0.15548 0.0
H124 H 0.41919 0.96617 0.15566 0.0
C125 C 0.16192 0.81161 0.1939 0.0
H126 H 0.32605 0.0181 0.11546 0.0
C127 C 0.21658 0.78236 0.21845 0.0
C128 C 0.30953 0.83723 0.20387 0.0
H129 H 0.08973 0.76725 0.20342 0.0
H130 H 0.18513 0.71583 0.24538 0.0
C131 C 0.34792 0.92273 0.168 0.0
C132 C 0.24979 0.15916 0.67335 0.0
C133 C 0.22376 0.08111 0.67972 0.0
H134 H 0.35331 0.2722 0.68712 0.0
C135 C 0.27223 0.04866 0.71721 0.0
H136 H 0.21362 0.1858 0.64516 0.0
C137 C 0.3511 0.09766 0.74251 0.0
C138 C 0.38267 0.17975 0.73011 0.0
H139 H 0.25327 -0.01166 0.72349 0.0
H140 H 0.39215 0.07487 0.76669 0.0
C141 C 0.32936 0.20856 0.69775 0.0
C142 C 0.26006 0.37649 0.23063 0.0
C143 C 0.20989 0.37293 0.18012 0.0
H144 H 0.33301 0.44368 0.28508 0.0
C145 C 0.1773 0.42263 0.15315 0.0
H146 H 0.28644 0.33908 0.25183 0.0
C147 C 0.20228 0.48128 0.17303 0.0
C148 C 0.26082 0.49139 0.21974 0.0
H149 H 0.13762 0.42 0.11446 0.0
H150 H 0.18145 0.52302 0.14912 0.0
C151 C 0.286 0.4359 0.25006 0.0
C152 C 0.72974 0.14735 0.66325 0.0
C153 C 0.82005 0.17394 0.66987 0.0
H154 H 0.63157 0.15813 0.67484 0.0
C155 C 0.8776 0.22271 0.70256 0.0
H156 H 0.68308 0.10799 0.63965 0.0
C157 C 0.84713 0.25024 0.72382 0.0
C158 C 0.75916 0.22934 0.71232 0.0
H159 H 0.94752 0.24405 0.70841 0.0
H160 H 0.89389 0.29232 0.74551 0.0
C161 C 0.69999 0.17546 0.68372 0.0
C162 C 0.78825 0.84412 0.13486 0.0
C163 C 0.86674 0.89215 0.16113 0.0
H164 H 0.64436 0.77366 0.13064 0.0
C165 C 0.85715 0.89994 0.20855 0.0
H166 H 0.79297 0.83647 0.09847 0.0
C167 C 0.77069 0.8635 0.2273 0.0
C168 C 0.69262 0.81905 0.19879 0.0
H169 H 0.91648 0.93707 0.22953 0.0
H170 H 0.76551 0.87365 0.26196 0.0
C171 C 0.70283 0.80842 0.15325 0.0
C172 C 0.93213 0.73474 0.68114 0.0
C173 C 0.88047 0.76627 0.64944 0.0
H174 H 0.93294 0.62458 0.72739 0.0
C175 C 0.78696 0.70858 0.64556 0.0
H176 H 1.00431 0.77771 0.68516 0.0
C177 C 0.74674 0.62207 0.66964 0.0
C178 C 0.79849 0.59053 0.69898 0.0
H179 H 0.74506 0.73049 0.62177 0.0
H180 H 0.67528 0.57973 0.66321 0.0
C181 C 0.89133 0.64729 0.70577 0.0
C182 C 0.17832 0.67957 0.44579 0.0
C183 C 0.21716 0.76554 0.42685 0.0
H184 H 0.18534 0.58847 0.44387 0.0
C185 C 0.28365 0.82519 0.38184 0.0
H186 H 0.12514 0.63177 0.47908 0.0
C187 C 0.31672 0.79981 0.36053 0.0
C188 C 0.28422 0.71476 0.38445 0.0
H189 H 0.31484 0.89191 0.36618 0.0
H190 H 0.37255 0.84728 0.32908 0.0
C191 C 0.21218 0.65462 0.4253 0.0
C192 C 0.30396 0.13043 0.96542 0.0
C193 C 0.2283 0.07067 0.94513 0.0
H194 H 0.4487 0.21457 0.96492 0.0
C195 C 0.24185 0.05561 0.90359 0.0
H196 H 0.29586 0.14333 0.99743 0.0
C197 C 0.32958 0.09745 0.88421 0.0
C198 C 0.40541 0.15411 0.9067 0.0
H199 H 0.18468 0.0095 0.88735 0.0
H200 H 0.33817 0.08202 0.85421 0.0
C201 C 0.39147 0.17096 0.94688 0.0
C202 C 0.17207 0.25096 0.41968 0.0
C203 C 0.22321 0.21884 0.45109 0.0
H204 H 0.17276 0.36189 0.37327 0.0
C205 C 0.31707 0.27595 0.45432 0.0
H206 H 0.09958 0.20837 0.41634 0.0
C207 C 0.35827 0.36262 0.42991 0.0
C208 C 0.30714 0.39485 0.40086 0.0
H209 H 0.35858 0.25353 0.47786 0.0
H210 H 0.43004 0.40457 0.43589 0.0
C211 C 0.21388 0.3386 0.39461 0.0
C212 C 0.94098 0.17821 0.90308 0.0
C213 C 0.90041 0.09112 0.93431 0.0
H214 H 0.92057 0.27618 0.85928 0.0
C215 C 0.80527 0.03504 0.93869 0.0
H216 H 0.01402 0.22298 0.89882 0.0
C217 C 0.75239 0.06557 0.91702 0.0
C218 C 0.79315 0.1526 0.88889 0.0
H219 H 0.77158 0.96762 0.96261 0.0
H220 H 0.67978 0.02128 0.92506 0.0
C221 C 0.88759 0.20865 0.87999 0.0
C222 C 0.83076 0.94053 0.38284 0.0
C223 C 0.87536 0.90424 0.42127 0.0
H224 H 0.71088 0.919 0.33434 0.0
C225 C 0.84079 0.82211 0.43104 0.0
H226 H 0.85613 0.00391 0.37412 0.0
C227 C 0.75761 0.77375 0.40865 0.0
C228 C 0.7091 0.80747 0.375 0.0
H229 H 0.8735 0.79231 0.46026 0.0
H230 H 0.72787 0.70793 0.42138 0.0
C231 C 0.74809 0.89237 0.35969 0.0
C232 C 0.90496 0.55592 0.95095 0.0
C233 C 0.86984 0.60345 0.92328 0.0
H234 H 0.90911 0.4603 0.95443 0.0
C235 C 0.82381 0.60129 0.87128 0.0
H236 H 0.94205 0.55792 0.99059 0.0
C237 C 0.80441 0.54521 0.85077 0.0
C238 C 0.83177 0.49143 0.88168 0.0
H239 H 0.79593 0.63738 0.8493 0.0
H240 H 0.76054 0.53839 0.81422 0.0
C241 C 0.88653 0.50061 0.93005 0.0
loop_
_geom_bond_atom_site_label_1
_geom_bond_atom_site_label_2
_geom_bond_distance
_geom_bond_site_symmetry_2
_ccdc_geom_bond_type
Ho0 C3 2.811 . S
Ho0 O20 2.322 . S
Ho0 O22 2.378 . S
Ho0 O23 2.524 . S
Ho0 O24 2.381 1_445 S
Ho0 O25 2.669 1_445 S
Ho0 O27 2.346 1_545 S
Ho0 O31 2.305 1_554 S
Ho1 C12 2.811 . S
Ho1 O21 2.346 1_565 S
Ho1 O25 2.305 1_556 S
Ho1 O26 2.322 1_656 S
Ho1 O28 2.378 . S
Ho1 O29 2.524 . S
Ho1 O30 2.381 1_665 S
Ho1 O31 2.669 1_665 S
C2 O20 1.259 1_656 S
C2 O21 1.268 . S
C3 Ho0 2.811 . S
C3 C4 1.488 . S
C3 O22 1.215 . S
C3 O23 1.289 . S
C4 C3 1.488 . S
C4 C5 1.348 . S
C4 C9 1.413 . S
C5 C4 1.348 . S
C5 C6 1.442 . S
C5 H32 0.930 . S
C6 C5 1.442 . S
C6 C7 1.381 . S
C6 H33 0.931 . S
C7 C6 1.381 . S
C7 C8 1.321 . S
C8 C7 1.321 . S
C8 C9 1.403 . S
C8 H34 0.934 . S
C9 C4 1.413 . S
C9 C8 1.403 . S
C9 H35 0.930 . S
C10 O24 1.275 . S
C10 O25 1.256 . S
C11 O26 1.259 . S
C11 O27 1.268 . S
C12 Ho1 2.811 . S
C12 C13 1.488 . S
C12 O28 1.215 . S
C12 O29 1.289 . S
C13 C12 1.488 . S
C13 C14 1.348 . S
C13 C18 1.413 . S
C14 C13 1.348 . S
C14 C15 1.442 . S
C14 H36 0.930 1_556 S
C15 C14 1.442 . S
C15 C16 1.381 . S
C15 H37 0.931 1_556 S
C16 C15 1.381 . S
C16 C17 1.321 . S
C17 C16 1.321 . S
C17 C18 1.403 . S
C17 H38 0.934 . S
C18 C13 1.413 . S
C18 C17 1.403 . S
C18 H39 0.930 . S
C19 O30 1.275 . S
C19 O31 1.256 . S
O20 Ho0 2.322 . S
O20 C2 1.259 1_454 S
O21 Ho1 2.346 1_545 S
O21 C2 1.268 . S
O22 Ho0 2.378 . S
O22 C3 1.215 . S
O23 Ho0 2.524 . S
O23 C3 1.289 . S
O24 Ho0 2.381 1_665 S
O24 C10 1.275 . S
O25 Ho0 2.669 1_665 S
O25 Ho1 2.305 1_554 S
O25 C10 1.256 . S
O26 Ho1 2.322 1_454 S
O26 C11 1.259 . S
O27 Ho0 2.346 1_565 S
O27 C11 1.268 . S
O28 Ho1 2.378 . S
O28 C12 1.215 . S
O29 Ho1 2.524 . S
O29 C12 1.289 . S
O30 Ho1 2.381 1_445 S
O30 C19 1.275 . S
O31 Ho0 2.305 1_556 S
O31 Ho1 2.669 1_445 S
O31 C19 1.256 . S
H32 C5 0.930 . S
H33 C6 0.931 . S
H34 C8 0.934 . S
H35 C9 0.930 . S
H36 C14 0.930 1_554 S
H37 C15 0.931 1_554 S
H38 C17 0.934 . S
H39 C18 0.930 . S
Ho40 C43 2.811 1_455 S
Ho40 O60 2.322 1_445 S
Ho40 O62 2.378 1_455 S
Ho40 O63 2.524 1_455 S
Ho40 O64 2.381 1_445 S
Ho40 O65 2.669 1_545 S
Ho40 O67 2.346 . S
Ho40 O71 2.305 . S
Ho41 C52 2.811 . S
Ho41 O61 2.346 1_455 S
Ho41 O65 2.305 . S
Ho41 O66 2.322 1_565 S
Ho41 O68 2.378 1_565 S
Ho41 O69 2.524 . S
Ho41 O70 2.381 1_565 S
Ho41 O71 2.669 1_565 S
C42 O60 1.259 . S
C42 O61 1.268 . S
C43 Ho40 2.811 1_655 S
C43 C44 1.488 . S
C43 O62 1.215 . S
C43 O63 1.289 . S
C44 C43 1.488 . S
C44 C45 1.348 . S
C44 C49 1.413 . S
C45 C44 1.348 . S
C45 C46 1.442 . S
C45 H72 0.930 . S
C46 C45 1.442 . S
C46 C47 1.381 . S
C46 H73 0.931 . S
C47 C46 1.381 . S
C47 C48 1.321 . S
C48 C47 1.321 . S
C48 C49 1.403 . S
C48 H74 0.934 . S
C49 C44 1.413 . S
C49 C48 1.403 . S
C49 H75 0.930 1_545 S
C50 O64 1.275 . S
C50 O65 1.256 1_655 S
C51 O66 1.259 . S
C51 O67 1.268 . S
C52 Ho41 2.811 . S
C52 C53 1.488 . S
C52 O68 1.215 1_565 S
C52 O69 1.289 . S
C53 C52 1.488 . S
C53 C54 1.348 . S
C53 C58 1.413 1_565 S
C54 C53 1.348 . S
C54 C55 1.442 . S
C54 H76 0.930 . S
C55 C54 1.442 . S
C55 C56 1.381 . S
C55 H77 0.931 . S
C56 C55 1.381 . S
C56 C57 1.321 1_565 S
C57 C56 1.321 1_545 S
C57 C58 1.403 . S
C57 H78 0.934 . S
C58 C53 1.413 1_545 S
C58 C57 1.403 . S
C58 H79 0.930 . S
C59 O70 1.275 . S
C59 O71 1.256 . S
O60 Ho40 2.322 1_665 S
O60 C42 1.259 . S
O61 Ho41 2.346 1_655 S
O61 C42 1.268 . S
O62 Ho40 2.378 1_655 S
O62 C43 1.215 . S
O63 Ho40 2.524 1_655 S
O63 C43 1.289 . S
O64 Ho40 2.381 1_665 S
O64 C50 1.275 . S
O65 Ho40 2.669 1_565 S
O65 Ho41 2.305 . S
O65 C50 1.256 1_455 S
O66 Ho41 2.322 1_545 S
O66 C51 1.259 . S
O67 Ho40 2.346 . S
O67 C51 1.268 . S
O68 Ho41 2.378 1_545 S
O68 C52 1.215 1_545 S
O69 Ho41 2.524 . S
O69 C52 1.289 . S
O70 Ho41 2.381 1_545 S
O70 C59 1.275 . S
O71 Ho40 2.305 . S
O71 Ho41 2.669 1_545 S
O71 C59 1.256 . S
H72 C45 0.930 . S
H73 C46 0.931 . S
H74 C48 0.934 . S
H75 C49 0.930 1_565 S
H76 C54 0.930 . S
H77 C55 0.931 . S
H78 C57 0.934 . S
H79 C58 0.930 . S
Zn80 O86 1.920 . S
Zn80 O92 1.898 . S
Zn80 O95 1.905 . S
Zn81 O89 1.905 . S
Zn81 O90 1.898 . S
Zn81 O98 1.920 . S
Zn82 O85 2.080 . S
Zn82 O88 2.114 . S
Zn82 O91 2.120 . S
Zn82 O93 2.120 . S
Zn82 O94 2.114 . S
Zn82 O97 2.080 . S
C83 O88 1.166 . S
C83 O89 1.182 . S
C84 O90 1.167 . S
C84 O91 1.299 . S
O85 Zn82 2.080 . S
O85 C99 1.305 . S
O86 Zn80 1.920 . S
O86 C99 1.234 . S
C87 O92 1.167 . S
C87 O93 1.299 . S
O88 Zn82 2.114 . S
O88 C83 1.166 . S
O89 Zn81 1.905 . S
O89 C83 1.182 . S
O90 Zn81 1.898 . S
O90 C84 1.167 . S
O91 Zn82 2.120 . S
O91 C84 1.299 . S
O92 Zn80 1.898 . S
O92 C87 1.167 . S
O93 Zn82 2.120 . S
O93 C87 1.299 . S
O94 Zn82 2.114 . S
O94 C96 1.166 . S
O95 Zn80 1.905 . S
O95 C96 1.182 . S
C96 O94 1.166 . S
C96 O95 1.182 . S
O97 Zn82 2.080 . S
O97 C100 1.305 . S
O98 Zn81 1.920 . S
O98 C100 1.234 . S
C99 O85 1.305 . S
C99 O86 1.234 . S
C100 O97 1.305 . S
C100 O98 1.234 . S
Zn101 O107 1.920 . S
Zn101 O113 1.898 . S
Zn101 O116 1.905 . S
Zn102 O110 1.905 . S
Zn102 O111 1.898 . S
Zn102 O119 1.920 . S
Zn103 O106 2.080 . S
Zn103 O109 2.114 . S
Zn103 O112 2.120 . S
Zn103 O114 2.120 . S
Zn103 O115 2.114 . S
Zn103 O118 2.080 . S
C104 O109 1.166 . S
C104 O110 1.182 . S
C105 O111 1.167 . S
C105 O112 1.299 . S
O106 Zn103 2.080 . S
O106 C120 1.305 . S
O107 Zn101 1.920 . S
O107 C120 1.234 . S
C108 O113 1.167 . S
C108 O114 1.299 . S
O109 Zn103 2.114 . S
O109 C104 1.166 . S
O110 Zn102 1.905 . S
O110 C104 1.182 . S
O111 Zn102 1.898 . S
O111 C105 1.167 . S
O112 Zn103 2.120 . S
O112 C105 1.299 . S
O113 Zn101 1.898 . S
O113 C108 1.167 . S
O114 Zn103 2.120 . S
O114 C108 1.299 . S
O115 Zn103 2.114 . S
O115 C117 1.166 . S
O116 Zn101 1.905 . S
O116 C117 1.182 . S
C117 O115 1.166 . S
C117 O116 1.182 . S
O118 Zn103 2.080 . S
O118 C121 1.305 . S
O119 Zn102 1.920 . S
O119 C121 1.234 . S
C120 O106 1.305 . S
C120 O107 1.234 . S
C121 O118 1.305 . S
C121 O119 1.234 . S
C122 C123 1.387 . S
C122 H126 0.950 . S
C122 C131 1.390 . S
C123 C122 1.387 . S
C123 C125 1.387 . S
H124 C131 0.950 . S
C125 C123 1.387 . S
C125 C127 1.390 . S
C125 H129 0.950 . S
H126 C122 0.950 . S
C127 C125 1.390 . S
C127 C128 1.387 . S
C127 H130 0.950 . S
C128 C127 1.387 . S
C128 C131 1.387 . S
H129 C125 0.950 . S
H130 C127 0.950 . S
C131 C122 1.390 . S
C131 H124 0.950 . S
C131 C128 1.387 . S
C132 C133 1.387 . S
C132 H136 0.950 . S
C132 C141 1.390 . S
C133 C132 1.387 . S
C133 C135 1.387 . S
H134 C141 0.950 . S
C135 C133 1.387 . S
C135 C137 1.390 . S
C135 H139 0.950 1_545 S
H136 C132 0.950 . S
C137 C135 1.390 . S
C137 C138 1.387 . S
C137 H140 0.950 . S
C138 C137 1.387 . S
C138 C141 1.387 . S
H139 C135 0.950 1_565 S
H140 C137 0.950 . S
C141 C132 1.390 . S
C141 H134 0.950 . S
C141 C138 1.387 . S
C142 C143 1.387 . S
C142 H146 0.950 . S
C142 C151 1.390 . S
C143 C142 1.387 . S
C143 C145 1.387 . S
H144 C151 0.950 . S
C145 C143 1.387 . S
C145 C147 1.390 . S
C145 H149 0.950 . S
H146 C142 0.950 . S
C147 C145 1.390 . S
C147 C148 1.387 . S
C147 H150 0.950 . S
C148 C147 1.387 . S
C148 C151 1.387 . S
H149 C145 0.950 . S
H150 C147 0.950 . S
C151 C142 1.390 . S
C151 H144 0.950 . S
C151 C148 1.387 . S
C152 C153 1.387 . S
C152 H156 0.950 . S
C152 C161 1.390 . S
C153 C152 1.387 . S
C153 C155 1.387 . S
H154 C161 0.950 . S
C155 C153 1.387 . S
C155 C157 1.390 . S
C155 H159 0.950 . S
H156 C152 0.950 . S
C157 C155 1.390 . S
C157 C158 1.387 . S
C157 H160 0.950 . S
C158 C157 1.387 . S
C158 C161 1.387 . S
H159 C155 0.950 . S
H160 C157 0.950 . S
C161 C152 1.390 . S
C161 H154 0.950 . S
C161 C158 1.387 . S
C162 C163 1.387 . S
C162 H166 0.950 1_565 S
C162 C171 1.390 . S
C163 C162 1.387 . S
C163 C165 1.387 . S
H164 C171 0.950 1_545 S
C165 C163 1.387 . S
C165 C167 1.390 . S
C165 H169 0.950 . S
H166 C162 0.950 1_545 S
C167 C165 1.390 . S
C167 C168 1.387 . S
C167 H170 0.950 . S
C168 C167 1.387 . S
C168 C171 1.387 . S
H169 C165 0.950 . S
H170 C167 0.950 . S
C171 C162 1.390 . S
C171 H164 0.950 1_565 S
C171 C168 1.387 . S
C172 C173 1.387 . S
C172 H176 0.950 . S
C172 C181 1.390 . S
C173 C172 1.387 . S
C173 C175 1.387 . S
H174 C181 0.950 . S
C175 C173 1.387 . S
C175 C177 1.390 . S
C175 H179 0.950 . S
H176 C172 0.950 . S
C177 C175 1.390 . S
C177 C178 1.387 . S
C177 H180 0.950 . S
C178 C177 1.387 . S
C178 C181 1.387 . S
H179 C175 0.950 . S
H180 C177 0.950 . S
C181 C172 1.390 . S
C181 H174 0.950 . S
C181 C178 1.387 . S
C182 C183 1.387 . S
C182 H186 0.950 . S
C182 C191 1.390 . S
C183 C182 1.387 . S
C183 C185 1.387 . S
H184 C191 0.950 . S
C185 C183 1.387 . S
C185 C187 1.390 . S
C185 H189 0.950 1_565 S
H186 C182 0.950 . S
C187 C185 1.390 . S
C187 C188 1.387 . S
C187 H190 0.950 . S
C188 C187 1.387 . S
C188 C191 1.387 . S
H189 C185 0.950 1_545 S
H190 C187 0.950 . S
C191 C182 1.390 . S
C191 H184 0.950 . S
C191 C188 1.387 . S
C192 C193 1.387 . S
C192 H196 0.950 . S
C192 C201 1.390 . S
C193 C192 1.387 . S
C193 C195 1.387 . S
H194 C201 0.950 . S
C195 C193 1.387 . S
C195 C197 1.390 . S
C195 H199 0.950 . S
H196 C192 0.950 . S
C197 C195 1.390 . S
C197 C198 1.387 . S
C197 H200 0.950 . S
C198 C197 1.387 . S
C198 C201 1.387 . S
H199 C195 0.950 . S
H200 C197 0.950 . S
C201 C192 1.390 . S
C201 H194 0.950 . S
C201 C198 1.387 . S
C202 C203 1.387 . S
C202 H206 0.950 . S
C202 C211 1.390 . S
C203 C202 1.387 . S
C203 C205 1.387 . S
H204 C211 0.950 . S
C205 C203 1.387 . S
C205 C207 1.390 . S
C205 H209 0.950 . S
H206 C202 0.950 . S
C207 C205 1.390 . S
C207 C208 1.387 . S
C207 H210 0.950 . S
C208 C207 1.387 . S
C208 C211 1.387 . S
H209 C205 0.950 . S
H210 C207 0.950 . S
C211 C202 1.390 . S
C211 H204 0.950 . S
C211 C208 1.387 . S
C212 C213 1.387 . S
C212 H216 0.950 . S
C212 C221 1.390 . S
C213 C212 1.387 . S
C213 C215 1.387 . S
H214 C221 0.950 . S
C215 C213 1.387 . S
C215 C217 1.390 . S
C215 H219 0.950 . S
H216 C212 0.950 . S
C217 C215 1.390 . S
C217 C218 1.387 . S
C217 H220 0.950 . S
C218 C217 1.387 . S
C218 C221 1.387 . S
H219 C215 0.950 . S
H220 C217 0.950 . S
C221 C212 1.390 . S
C221 H214 0.950 . S
C221 C218 1.387 . S
C222 C223 1.387 . S
C222 H226 0.950 . S
C222 C231 1.390 . S
C223 C222 1.387 . S
C223 C225 1.387 . S
H224 C231 0.950 . S
C225 C223 1.387 . S
C225 C227 1.390 . S
C225 H229 0.950 . S
H226 C222 0.950 . S
C227 C225 1.390 . S
C227 C228 1.387 . S
C227 H230 0.950 . S
C228 C227 1.387 . S
C228 C231 1.387 . S
H229 C225 0.950 . S
H230 C227 0.950 . S
C231 C222 1.390 . S
C231 H224 0.950 . S
C231 C228 1.387 . S
C232 C233 1.387 . S
C232 H236 0.950 . S
C232 C241 1.390 . S
C233 C232 1.387 . S
C233 C235 1.387 . S
H234 C241 0.950 . S
C235 C233 1.387 . S
C235 C237 1.390 . S
C235 H239 0.950 . S
H236 C232 0.950 . S
C237 C235 1.390 . S
C237 C238 1.387 . S
C237 H240 0.950 . S
C238 C237 1.387 . S
C238 C241 1.387 . S
H239 C235 0.950 . S
H240 C237 0.950 . S
C241 C232 1.390 . S
C241 H234 0.950 . S
C241 C238 1.387 . S
C123 C11 1.912 . S
C128 C99 1.915 . S
C133 C51 1.309 . S
C138 C105 1.226 . S
C143 C7 1.100 . S
C148 C96 0.965 . S
C153 C47 1.649 . S
C158 C121 1.481 . S
C163 C10 2.168 . S
C168 C87 2.058 . S
C178 C104 2.321 . S
C173 C50 2.370 . S
C183 C56 1.421 . S
C188 C100 1.330 . S
C198 C117 1.741 . S
C193 C19 1.789 . S
C208 C84 2.109 . S
C203 C59 2.183 . S
C218 C120 2.193 . S
C213 C2 2.180 . S
C228 C83 1.566 . S
C223 C42 1.639 . S
C238 C108 0.936 . S
C233 C16 1.070 . S
