# Generated by pormake.
# Topology wbl, (4,4)-cn, num edge types: 1
# Building blocks:
#     Node 0, Type 0, BuildingBlock: MUDLON_clean_sbu_0, # of connection points: 4
#     Node 1, Type 0, BuildingBlock: MUDLON_clean_sbu_0, # of connection points: 4
#     Node 2, Type 0, BuildingBlock: MUDLON_clean_sbu_0, # of connection points: 4
#     Node 3, Type 0, BuildingBlock: MUDLON_clean_sbu_0, # of connection points: 4
#     Node 4, Type 0, BuildingBlock: MUDLON_clean_sbu_0, # of connection points: 4
#     Node 5, Type 0, BuildingBlock: MUDLON_clean_sbu_0, # of connection points: 4
#     Node 6, Type 0, BuildingBlock: MUDLON_clean_sbu_0, # of connection points: 4
#     Node 7, Type 0, BuildingBlock: MUDLON_clean_sbu_0, # of connection points: 4
#     Node 8, Type 1, BuildingBlock: QUQFOY_clean_sbu_3, # of connection points: 4
#     Node 9, Type 1, BuildingBlock: QUQFOY_clean_sbu_3, # of connection points: 4
#     Node 10, Type 1, BuildingBlock: QUQFOY_clean_sbu_3, # of connection points: 4
#     Node 11, Type 1, BuildingBlock: QUQFOY_clean_sbu_3, # of connection points: 4
#     Node 12, Type 1, BuildingBlock: QUQFOY_clean_sbu_3, # of connection points: 4
#     Node 13, Type 1, BuildingBlock: QUQFOY_clean_sbu_3, # of connection points: 4
#     Node 14, Type 1, BuildingBlock: QUQFOY_clean_sbu_3, # of connection points: 4
#     Node 15, Type 1, BuildingBlock: QUQFOY_clean_sbu_3, # of connection points: 4
#     Edge 16, Type (0, 1), None
#     Edge 17, Type (0, 1), None
#     Edge 18, Type (0, 1), None
#     Edge 19, Type (0, 1), None
#     Edge 20, Type (0, 1), None
#     Edge 21, Type (0, 1), None
#     Edge 22, Type (0, 1), None
#     Edge 23, Type (0, 1), None
#     Edge 24, Type (0, 1), None
#     Edge 25, Type (0, 1), None
#     Edge 26, Type (0, 1), None
#     Edge 27, Type (0, 1), None
#     Edge 28, Type (0, 1), None
#     Edge 29, Type (0, 1), None
#     Edge 30, Type (0, 1), None
#     Edge 31, Type (0, 1), None
#     Edge 32, Type (0, 1), None
#     Edge 33, Type (0, 1), None
#     Edge 34, Type (0, 1), None
#     Edge 35, Type (0, 1), None
#     Edge 36, Type (0, 1), None
#     Edge 37, Type (0, 1), None
#     Edge 38, Type (0, 1), None
#     Edge 39, Type (0, 1), None
#     Edge 40, Type (0, 1), None
#     Edge 41, Type (0, 1), None
#     Edge 42, Type (0, 1), None
#     Edge 43, Type (0, 1), None
#     Edge 44, Type (0, 1), None
#     Edge 45, Type (0, 1), None
#     Edge 46, Type (0, 1), None
#     Edge 47, Type (0, 1), None
# Relax obj value: 0.234
# Max RMSD: 0.225
# Mean RMSD: 0.177
data_MOF--net-wbl--node1-MUDLON_clean_sbu_0--node2-QUQFOY_clean_sbu_3--edge1-none
_symmetry_space_group_name_H-M    P1
_symmetry_Int_Tables_number       1
_symmetry_cell_setting            triclinic
loop_
_symmetry_equiv_pos_as_xyz
'x, y, z'
_cell_length_a     16.675599
_cell_length_b     16.540615
_cell_length_c     35.532096
_cell_angle_alpha  91.598298
_cell_angle_beta   89.262947
_cell_angle_gamma 89.675062
loop_
_atom_site_label
_atom_site_type_symbol
_atom_site_fract_x
_atom_site_fract_y
_atom_site_fract_z
_atom_type_partial_charge
Mg0 Mg -0.00213 0.08328 0.34774 0.0
C1 C 0.11058 0.05694 0.40546 0.0
O2 O 0.12341 -0.00457 0.38197 0.0
C3 C 0.87924 0.13946 0.29993 0.0
O4 O 0.89438 0.06278 0.29196 0.0
C5 C 0.10081 0.96825 0.29084 0.0
O6 O 0.07949 0.90327 0.30876 0.0
O7 O 0.07456 0.03747 0.30168 0.0
O8 O 0.07018 0.11725 0.39476 0.0
O9 O 0.91408 0.01227 0.38018 0.0
C10 C 0.93574 0.96705 0.40666 0.0
O11 O -0.00728 0.91303 0.40079 0.0
O12 O 0.9213 0.17532 0.32471 0.0
Mg13 Mg 0.09598 0.52359 0.57956 0.0
C14 C 0.26669 0.61239 0.61741 0.0
O15 O 0.32218 0.63758 0.59409 0.0
C16 C 0.06489 0.34203 0.54231 0.0
O17 O 0.13774 0.31997 0.55134 0.0
C18 C 0.14141 0.65556 0.52881 0.0
O19 O 0.20211 0.60464 0.52606 0.0
O20 O 0.07857 0.63468 0.54722 0.0
O21 O 0.20414 0.57987 0.60359 0.0
O22 O 0.05349 0.50516 0.63696 0.0
C23 C 0.10723 0.46395 0.65323 0.0
O24 O 0.16786 0.43465 0.63304 0.0
O25 O 0.042 0.41517 0.54893 0.0
Mg26 Mg 0.63174 0.61502 0.84143 0.0
C27 C 0.64213 0.78841 0.88433 0.0
O28 O 0.66792 0.86319 0.88355 0.0
C29 C 0.79711 0.57381 0.80361 0.0
O30 O 0.81255 0.65058 0.81038 0.0
C31 C 0.49107 0.67076 0.79426 0.0
O32 O 0.52756 0.74071 0.7975 0.0
O33 O 0.51979 0.60927 0.81036 0.0
O34 O 0.66149 0.74052 0.85669 0.0
O35 O 0.63435 0.55996 0.89528 0.0
C36 C 0.70362 0.57714 0.90751 0.0
O37 O 0.75336 0.61734 0.88623 0.0
O38 O 0.72758 0.54663 0.81101 0.0
Mg39 Mg 0.50015 0.14859 0.08532 0.0
C40 C 0.62404 0.18529 0.1491 0.0
O41 O 0.67551 0.19957 0.12191 0.0
C42 C 0.56691 0.98623 0.05271 0.0
O43 O 0.63322 0.00977 0.06914 0.0
C44 C 0.63389 0.23367 0.04054 0.0
O45 O 0.66969 0.16316 0.04264 0.0
O46 O 0.56223 0.24255 0.05318 0.0
O47 O 0.55436 0.16005 0.14128 0.0
O48 O 0.369 0.16828 0.09091 0.0
C49 C 0.32035 0.13961 0.11529 0.0
O50 O 0.24303 0.15186 0.11154 0.0
O51 O 0.50475 0.0305 0.05573 0.0
Mg52 Mg 0.14927 0.50517 0.91026 0.0
C53 C 0.1489 0.61993 0.84504 0.0
O54 O 0.18312 0.67118 0.86851 0.0
C55 C 0.03892 0.52508 0.97905 0.0
O56 O 0.09828 0.56822 -0.00736 0.0
C57 C 0.25412 0.6442 0.9457 0.0
O58 O 0.18785 0.68745 0.94603 0.0
O59 O 0.25289 0.57017 0.93449 0.0
O60 O 0.11992 0.555 0.85711 0.0
O61 O 0.17915 0.38047 0.8948 0.0
C62 C 0.14647 0.33832 0.86861 0.0
O63 O 0.16423 0.26104 0.86509 0.0
O64 O 0.04417 0.49516 0.94591 0.0
Mg65 Mg 0.62771 0.65961 0.15496 0.0
C66 C 0.50812 0.59246 0.09046 0.0
O67 O 0.44602 0.54647 0.08309 0.0
C68 C 0.61104 0.53978 0.21544 0.0
O69 O 0.53527 0.55218 0.20763 0.0
C70 C 0.50651 0.78274 0.18322 0.0
O71 O 0.45981 0.71956 0.17907 0.0
O72 O 0.58091 0.77614 0.17509 0.0
O73 O 0.53518 0.59363 0.12393 0.0
O74 O 0.72982 0.65925 0.1181 0.0
C75 C 0.77538 0.59764 0.12022 0.0
O76 O 0.78968 0.56729 0.15319 0.0
O77 O 0.66387 0.58322 0.20029 0.0
Mg78 Mg 0.49649 0.13887 0.40417 0.0
C79 C 0.52091 0.3113 0.371 0.0
O80 O 0.51371 0.39036 0.37383 0.0
C81 C 0.4151 0.04511 0.46577 0.0
O82 O 0.4695 0.98998 0.45677 0.0
C83 C 0.64419 0.16155 0.45023 0.0
O84 O 0.61821 0.23664 0.4519 0.0
O85 O 0.60828 0.10887 0.42998 0.0
O86 O 0.491 0.2689 0.39694 0.0
O87 O 0.46704 0.06755 0.35347 0.0
C88 C 0.42049 0.09862 0.32968 0.0
O89 O 0.39094 0.17145 0.33636 0.0
O90 O 0.41198 0.11047 0.4478 0.0
Mg91 Mg 0.97541 0.0142 0.67549 0.0
C92 C 0.12825 -0.00729 0.62611 0.0
O93 O 0.15863 0.95336 0.65408 0.0
C94 C 0.03676 0.15784 0.71299 0.0
O95 O 0.09742 0.13035 0.69238 0.0
C96 C 0.08304 0.91952 0.72394 0.0
O97 O 0.10708 -0.00681 0.73205 0.0
O98 O 0.02075 0.90906 0.70403 0.0
O99 O 0.0607 0.02814 0.62978 0.0
O100 O 0.87356 0.00486 0.63875 0.0
C101 C 0.84494 0.07243 0.62899 0.0
O102 O 0.84958 0.13472 0.65256 0.0
O103 O 0.97037 0.12131 0.71158 0.0
C104 C 0.53843 0.64442 0.06038 0.0
O105 O 0.61234 0.65894 0.05612 0.0
Cd106 Cd 0.65501 0.73694 0.00148 0.0
O107 O 0.48898 0.6692 0.03639 0.0
Cd108 Cd 0.48096 0.75065 0.97956 0.0
C109 C 0.56562 0.90884 0.03114 0.0
O110 O 0.59811 0.7117 0.93815 0.0
O111 O 0.52969 0.81794 0.924 0.0
O112 O 0.39433 0.64025 0.95835 0.0
C113 C 0.58505 0.76787 0.91496 0.0
O114 O 0.63197 0.87227 0.02536 0.0
C115 C 0.33051 0.68202 0.9568 0.0
O116 O 0.49979 0.87815 0.01942 0.0
O117 O 0.33607 0.75743 0.96472 0.0
C118 C 0.34933 0.09776 0.14858 0.0
O119 O 0.42154 0.10626 0.15752 0.0
Cd120 Cd 0.48162 0.06133 0.21343 0.0
O121 O 0.30159 0.05919 0.16987 0.0
Cd122 Cd 0.32469 0.98586 0.23071 0.0
C123 C 0.47257 0.86072 0.19651 0.0
O124 O 0.3903 0.09654 0.26454 0.0
O125 O 0.3996 0.98071 0.29063 0.0
O126 O 0.19177 0.03129 0.24938 0.0
C127 C 0.40387 0.05701 0.29376 0.0
O128 O 0.51892 0.92067 0.20141 0.0
C129 C 0.16957 0.96656 0.26453 0.0
O130 O 0.39731 0.86798 0.20251 0.0
O131 O 0.21635 0.90591 0.2608 0.0
C132 C 0.12858 0.04859 0.44524 0.0
O133 O 0.11869 0.10915 0.46754 0.0
Cd134 Cd 0.17214 0.10842 0.52867 0.0
O135 O 0.15162 0.97991 0.45697 0.0
Cd136 Cd 0.19292 0.91168 0.51585 0.0
C137 C 0.3477 0.02648 0.49055 0.0
O138 O 0.1189 -0.00446 0.56 0.0
O139 O 0.22511 0.93905 0.58218 0.0
O140 O 0.10011 0.79322 0.51804 0.0
C141 C 0.16049 0.9785 0.58825 0.0
O142 O 0.30513 0.08568 0.50293 0.0
C143 C 0.15604 0.74096 0.51945 0.0
O144 O 0.32398 0.95368 0.49277 0.0
O145 O 0.22735 0.76708 0.51629 0.0
C146 C 0.16874 0.62285 0.805 0.0
O147 O 0.16089 0.56001 0.78428 0.0
Cd148 Cd 0.26232 0.55016 0.73632 0.0
O149 O 0.20841 0.68204 0.79308 0.0
Cd150 Cd 0.24976 0.72153 0.73008 0.0
C151 C 0.41633 0.66363 0.77285 0.0
O152 O 0.21731 0.61667 0.68134 0.0
O153 O 0.31431 0.69811 0.66791 0.0
O154 O 0.11624 0.77983 0.72646 0.0
C155 C 0.26734 0.6419 0.65715 0.0
O156 O 0.38695 0.5938 0.76663 0.0
C157 C 0.13974 0.85258 0.72779 0.0
O158 O 0.3805 0.72661 0.76159 0.0
O159 O 0.21512 0.86494 0.72891 0.0
C160 C 0.90994 0.98791 0.44544 0.0
O161 O 0.88503 0.93234 0.46637 0.0
Cd162 Cd 0.80381 0.97679 0.51827 0.0
O163 O 0.91177 0.06178 0.45746 0.0
Cd164 Cd 0.88609 0.15134 0.51672 0.0
C165 C 0.71071 0.13646 0.47365 0.0
O166 O 0.88184 0.04678 0.56475 0.0
O167 O 0.81323 0.15546 0.57748 0.0
O168 O 0.02522 0.20476 0.52635 0.0
C169 C 0.84131 0.08899 0.58863 0.0
O170 O 0.71328 0.06327 0.48371 0.0
C171 C 0.00591 0.27914 0.52992 0.0
O172 O 0.76502 0.18669 0.48299 0.0
O173 O 0.9321 0.29546 0.52547 0.0
C174 C 0.10569 0.44846 0.69374 0.0
O175 O 0.17128 0.42812 0.70872 0.0
Cd176 Cd 0.19111 0.36503 0.76764 0.0
O177 O 0.03971 0.44673 0.71211 0.0
Cd178 Cd -0.00449 0.40973 0.77712 0.0
C179 C 0.04765 0.23054 0.73629 0.0
O180 O 0.11188 0.42131 0.81734 0.0
O181 O 0.02211 0.33882 0.83643 0.0
O182 O 0.93408 0.54324 0.78797 0.0
C183 C 0.0888 0.37321 0.8424 0.0
O184 O 0.11952 0.24906 0.7443 0.0
C185 C 0.86306 0.51763 0.79281 0.0
O186 O -0.01159 0.27755 0.74427 0.0
O187 O 0.85284 0.44136 0.79043 0.0
C188 C 0.72385 0.56965 0.94668 0.0
O189 O 0.75353 0.63148 0.96306 0.0
Cd190 Cd 0.80705 0.65457 0.0237 0.0
O191 O 0.72218 0.50086 0.96174 0.0
Cd192 Cd 0.77476 0.44837 0.02056 0.0
C193 C 0.96023 0.52878 -0.00254 0.0
O194 O 0.73961 0.56027 0.05851 0.0
O195 O 0.81841 0.4776 0.08621 0.0
O196 O 0.64919 0.37438 0.02881 0.0
C197 C 0.77878 0.54335 0.08732 0.0
O198 O 0.93812 0.59709 0.01151 0.0
C199 C 0.6815 0.30496 0.03049 0.0
O200 O 0.91225 0.46872 -0.00573 0.0
O201 O 0.75757 0.3011 0.02648 0.0
C202 C 0.56139 0.27483 0.33765 0.0
O203 O 0.55644 0.2 0.33003 0.0
Cd204 Cd 0.60814 0.14156 0.27101 0.0
O205 O 0.59725 0.32052 0.31503 0.0
Cd206 Cd 0.66918 0.30446 0.25497 0.0
C207 C 0.80346 0.17333 0.28719 0.0
O208 O 0.58865 0.21359 0.21384 0.0
O209 O 0.71015 0.24126 0.19555 0.0
O210 O 0.58083 0.4151 0.2428 0.0
C211 C 0.64248 0.2107 0.18798 0.0
O212 O 0.74841 0.12303 0.27958 0.0
C213 C 0.63449 0.46431 0.23297 0.0
O214 O 0.79119 0.24941 0.28542 0.0
O215 O 0.70735 0.44068 0.23444 0.0
loop_
_geom_bond_atom_site_label_1
_geom_bond_atom_site_label_2
_geom_bond_distance
_geom_bond_site_symmetry_2
_ccdc_geom_bond_type
Mg0 O7 2.141 . S
Mg0 O8 2.048 1_545 S
Mg0 O9 2.048 1_455 S
Mg0 O12 2.141 1_455 S
C1 O2 1.313 . S
C1 O8 1.195 . S
O2 C1 1.313 . S
C3 O4 1.245 . S
C3 O12 1.289 . S
O4 C3 1.245 . S
C5 O6 1.245 . S
C5 O7 1.289 1_565 S
O6 C5 1.245 . S
O7 Mg0 2.141 . S
O7 C5 1.289 1_545 S
O8 Mg0 2.048 1_565 S
O8 C1 1.195 . S
O9 Mg0 2.048 1_655 S
O9 C10 1.195 . S
C10 O9 1.195 . S
C10 O11 1.313 1_545 S
O11 C10 1.313 1_565 S
O12 Mg0 2.141 1_655 S
O12 C3 1.289 . S
Mg13 O20 2.141 . S
Mg13 O21 2.048 . S
Mg13 O22 2.048 . S
Mg13 O25 2.141 . S
C14 O15 1.313 . S
C14 O21 1.195 . S
O15 C14 1.313 . S
C16 O17 1.245 . S
C16 O25 1.289 . S
O17 C16 1.245 . S
C18 O19 1.245 . S
C18 O20 1.289 . S
O19 C18 1.245 . S
O20 Mg13 2.141 . S
O20 C18 1.289 . S
O21 Mg13 2.048 . S
O21 C14 1.195 . S
O22 Mg13 2.048 . S
O22 C23 1.195 . S
C23 O22 1.195 . S
C23 O24 1.313 . S
O24 C23 1.313 . S
O25 Mg13 2.141 . S
O25 C16 1.289 . S
Mg26 O33 2.141 . S
Mg26 O34 2.048 . S
Mg26 O35 2.048 . S
Mg26 O38 2.141 . S
C27 O28 1.313 . S
C27 O34 1.195 . S
O28 C27 1.313 . S
C29 O30 1.245 . S
C29 O38 1.289 . S
O30 C29 1.245 . S
C31 O32 1.245 . S
C31 O33 1.289 . S
O32 C31 1.245 . S
O33 Mg26 2.141 . S
O33 C31 1.289 . S
O34 Mg26 2.048 . S
O34 C27 1.195 . S
O35 Mg26 2.048 . S
O35 C36 1.195 . S
C36 O35 1.195 . S
C36 O37 1.313 . S
O37 C36 1.313 . S
O38 Mg26 2.141 . S
O38 C29 1.289 . S
Mg39 O46 2.141 . S
Mg39 O47 2.048 . S
Mg39 O48 2.048 . S
Mg39 O51 2.141 . S
C40 O41 1.313 . S
C40 O47 1.195 . S
O41 C40 1.313 . S
C42 O43 1.245 . S
C42 O51 1.289 . S
O43 C42 1.245 . S
C44 O45 1.245 . S
C44 O46 1.289 . S
O45 C44 1.245 . S
O46 Mg39 2.141 . S
O46 C44 1.289 . S
O47 Mg39 2.048 . S
O47 C40 1.195 . S
O48 Mg39 2.048 . S
O48 C49 1.195 . S
C49 O48 1.195 . S
C49 O50 1.313 . S
O50 C49 1.313 . S
O51 Mg39 2.141 . S
O51 C42 1.289 . S
Mg52 O59 2.141 . S
Mg52 O60 2.048 . S
Mg52 O61 2.048 . S
Mg52 O64 2.141 . S
C53 O54 1.313 . S
C53 O60 1.195 . S
O54 C53 1.313 . S
C55 O56 1.245 . S
C55 O64 1.289 . S
O56 C55 1.245 . S
C57 O58 1.245 . S
C57 O59 1.289 . S
O58 C57 1.245 . S
O59 Mg52 2.141 . S
O59 C57 1.289 . S
O60 Mg52 2.048 . S
O60 C53 1.195 . S
O61 Mg52 2.048 . S
O61 C62 1.195 . S
C62 O61 1.195 . S
C62 O63 1.313 . S
O63 C62 1.313 . S
O64 Mg52 2.141 . S
O64 C55 1.289 . S
Mg65 O72 2.141 . S
Mg65 O73 2.048 . S
Mg65 O74 2.048 . S
Mg65 O77 2.141 . S
C66 O67 1.313 . S
C66 O73 1.195 . S
O67 C66 1.313 . S
C68 O69 1.245 . S
C68 O77 1.289 . S
O69 C68 1.245 . S
C70 O71 1.245 . S
C70 O72 1.289 . S
O71 C70 1.245 . S
O72 Mg65 2.141 . S
O72 C70 1.289 . S
O73 Mg65 2.048 . S
O73 C66 1.195 . S
O74 Mg65 2.048 . S
O74 C75 1.195 . S
C75 O74 1.195 . S
C75 O76 1.313 . S
O76 C75 1.313 . S
O77 Mg65 2.141 . S
O77 C68 1.289 . S
Mg78 O85 2.141 . S
Mg78 O86 2.048 . S
Mg78 O87 2.048 . S
Mg78 O90 2.141 . S
C79 O80 1.313 . S
C79 O86 1.195 . S
O80 C79 1.313 . S
C81 O82 1.245 . S
C81 O90 1.289 . S
O82 C81 1.245 . S
C83 O84 1.245 . S
C83 O85 1.289 . S
O84 C83 1.245 . S
O85 Mg78 2.141 . S
O85 C83 1.289 . S
O86 Mg78 2.048 . S
O86 C79 1.195 . S
O87 Mg78 2.048 . S
O87 C88 1.195 . S
C88 O87 1.195 . S
C88 O89 1.313 . S
O89 C88 1.313 . S
O90 Mg78 2.141 . S
O90 C81 1.289 . S
Mg91 O98 2.141 1_655 S
Mg91 O99 2.048 1_655 S
Mg91 O100 2.048 1_565 S
Mg91 O103 2.141 1_565 S
C92 O93 1.313 . S
C92 O99 1.195 . S
O93 C92 1.313 . S
C94 O95 1.245 1_655 S
C94 O103 1.289 . S
O95 C94 1.245 1_455 S
C96 O97 1.245 . S
C96 O98 1.289 . S
O97 C96 1.245 . S
O98 Mg91 2.141 1_455 S
O98 C96 1.289 . S
O99 Mg91 2.048 1_455 S
O99 C92 1.195 . S
O100 Mg91 2.048 1_545 S
O100 C101 1.195 . S
C101 O100 1.195 . S
C101 O102 1.313 1_655 S
O102 C101 1.313 1_455 S
O103 Mg91 2.141 1_545 S
O103 C94 1.289 . S
C104 O105 1.306 . S
C104 O107 1.160 . S
O105 C104 1.306 . S
O105 Cd106 2.228 . S
Cd106 O105 2.228 . S
Cd106 O110 2.273 1_554 S
Cd106 O114 2.277 . S
O107 C104 1.160 . S
O107 Cd108 2.203 . S
Cd108 O107 2.203 . S
Cd108 O110 2.411 1_554 S
Cd108 O111 2.333 1_554 S
Cd108 O112 2.352 1_554 S
Cd108 O116 2.277 . S
Cd108 O117 2.356 1_554 S
C109 O114 1.209 . S
C109 O116 1.226 . S
O110 Cd106 2.273 1_556 S
O110 Cd108 2.411 1_556 S
O110 C113 1.320 . S
O111 Cd108 2.333 1_556 S
O111 C113 1.214 . S
O112 Cd108 2.352 1_556 S
O112 C115 1.258 . S
C113 O110 1.320 . S
C113 O111 1.214 . S
O114 Cd106 2.277 . S
O114 C109 1.209 . S
C115 O112 1.258 . S
C115 O117 1.282 . S
O116 Cd108 2.277 . S
O116 C109 1.226 . S
O117 Cd108 2.356 1_556 S
O117 C115 1.282 . S
C118 O119 1.306 . S
C118 O121 1.160 1_545 S
O119 C118 1.306 . S
O119 Cd120 2.228 . S
Cd120 O119 2.228 . S
Cd120 O124 2.273 . S
Cd120 O128 2.277 1_545 S
O121 C118 1.160 1_565 S
O121 Cd122 2.203 . S
Cd122 O121 2.203 . S
Cd122 O124 2.411 1_565 S
Cd122 O125 2.333 . S
Cd122 O126 2.352 1_565 S
Cd122 O130 2.277 . S
Cd122 O131 2.356 . S
C123 O128 1.209 . S
C123 O130 1.226 . S
O124 Cd120 2.273 . S
O124 Cd122 2.411 1_545 S
O124 C127 1.320 1_545 S
O125 Cd122 2.333 . S
O125 C127 1.214 . S
O126 Cd122 2.352 1_545 S
O126 C129 1.258 1_545 S
C127 O124 1.320 1_565 S
C127 O125 1.214 . S
O128 Cd120 2.277 1_565 S
O128 C123 1.209 . S
C129 O126 1.258 1_565 S
C129 O131 1.282 . S
O130 Cd122 2.277 . S
O130 C123 1.226 . S
O131 Cd122 2.356 . S
O131 C129 1.282 . S
C132 O133 1.306 . S
C132 O135 1.160 . S
O133 C132 1.306 . S
O133 Cd134 2.228 1_565 S
Cd134 O133 2.228 1_545 S
Cd134 O138 2.273 1_545 S
Cd134 O142 2.277 . S
O135 C132 1.160 . S
O135 Cd136 2.203 . S
Cd136 O135 2.203 . S
Cd136 O138 2.411 . S
Cd136 O139 2.333 . S
Cd136 O140 2.352 . S
Cd136 O144 2.277 . S
Cd136 O145 2.356 . S
C137 O142 1.209 1_565 S
C137 O144 1.226 . S
O138 Cd134 2.273 1_565 S
O138 Cd136 2.411 . S
O138 C141 1.320 . S
O139 Cd136 2.333 . S
O139 C141 1.214 . S
O140 Cd136 2.352 . S
O140 C143 1.258 . S
C141 O138 1.320 . S
C141 O139 1.214 . S
O142 Cd134 2.277 . S
O142 C137 1.209 1_545 S
C143 O140 1.258 . S
C143 O145 1.282 . S
O144 Cd136 2.277 . S
O144 C137 1.226 . S
O145 Cd136 2.356 . S
O145 C143 1.282 . S
C146 O147 1.306 . S
C146 O149 1.160 . S
O147 C146 1.306 . S
O147 Cd148 2.228 . S
Cd148 O147 2.228 . S
Cd148 O152 2.273 . S
Cd148 O156 2.277 . S
O149 C146 1.160 . S
O149 Cd150 2.203 . S
Cd150 O149 2.203 . S
Cd150 O152 2.411 . S
Cd150 O153 2.333 . S
Cd150 O154 2.352 . S
Cd150 O158 2.277 . S
Cd150 O159 2.356 . S
C151 O156 1.209 . S
C151 O158 1.226 . S
O152 Cd148 2.273 . S
O152 Cd150 2.411 . S
O152 C155 1.320 . S
O153 Cd150 2.333 . S
O153 C155 1.214 . S
O154 Cd150 2.352 . S
O154 C157 1.258 . S
C155 O152 1.320 . S
C155 O153 1.214 . S
O156 Cd148 2.277 . S
O156 C151 1.209 . S
C157 O154 1.258 . S
C157 O159 1.282 . S
O158 Cd150 2.277 . S
O158 C151 1.226 . S
O159 Cd150 2.356 . S
O159 C157 1.282 . S
C160 O161 1.306 . S
C160 O163 1.160 . S
O161 C160 1.306 . S
O161 Cd162 2.228 . S
Cd162 O161 2.228 . S
Cd162 O166 2.273 . S
Cd162 O170 2.277 . S
O163 C160 1.160 . S
O163 Cd164 2.203 . S
Cd164 O163 2.203 . S
Cd164 O166 2.411 . S
Cd164 O167 2.333 . S
Cd164 O168 2.352 1_655 S
Cd164 O172 2.277 . S
Cd164 O173 2.356 . S
C165 O170 1.209 . S
C165 O172 1.226 . S
O166 Cd162 2.273 . S
O166 Cd164 2.411 . S
O166 C169 1.320 . S
O167 Cd164 2.333 . S
O167 C169 1.214 . S
O168 Cd164 2.352 1_455 S
O168 C171 1.258 1_455 S
C169 O166 1.320 . S
C169 O167 1.214 . S
O170 Cd162 2.277 . S
O170 C165 1.209 . S
C171 O168 1.258 1_655 S
C171 O173 1.282 . S
O172 Cd164 2.277 . S
O172 C165 1.226 . S
O173 Cd164 2.356 . S
O173 C171 1.282 . S
C174 O175 1.306 . S
C174 O177 1.160 1_455 S
O175 C174 1.306 . S
O175 Cd176 2.228 . S
Cd176 O175 2.228 . S
Cd176 O180 2.273 . S
Cd176 O184 2.277 . S
O177 C174 1.160 1_655 S
O177 Cd178 2.203 . S
Cd178 O177 2.203 . S
Cd178 O180 2.411 1_655 S
Cd178 O181 2.333 . S
Cd178 O182 2.352 . S
Cd178 O186 2.277 . S
Cd178 O187 2.356 . S
C179 O184 1.209 1_655 S
C179 O186 1.226 . S
O180 Cd176 2.273 . S
O180 Cd178 2.411 1_455 S
O180 C183 1.320 . S
O181 Cd178 2.333 . S
O181 C183 1.214 1_655 S
O182 Cd178 2.352 . S
O182 C185 1.258 . S
C183 O180 1.320 . S
C183 O181 1.214 1_455 S
O184 Cd176 2.277 . S
O184 C179 1.209 1_455 S
C185 O182 1.258 . S
C185 O187 1.282 . S
O186 Cd178 2.277 . S
O186 C179 1.226 . S
O187 Cd178 2.356 . S
O187 C185 1.282 . S
C188 O189 1.306 . S
C188 O191 1.160 . S
O189 C188 1.306 . S
O189 Cd190 2.228 1_556 S
Cd190 O189 2.228 1_554 S
Cd190 O194 2.273 . S
Cd190 O198 2.277 . S
O191 C188 1.160 . S
O191 Cd192 2.203 1_556 S
Cd192 O191 2.203 1_554 S
Cd192 O194 2.411 . S
Cd192 O195 2.333 . S
Cd192 O196 2.352 . S
Cd192 O200 2.277 . S
Cd192 O201 2.356 . S
C193 O198 1.209 . S
C193 O200 1.226 . S
O194 Cd190 2.273 . S
O194 Cd192 2.411 . S
O194 C197 1.320 . S
O195 Cd192 2.333 . S
O195 C197 1.214 . S
O196 Cd192 2.352 . S
O196 C199 1.258 . S
C197 O194 1.320 . S
C197 O195 1.214 . S
O198 Cd190 2.277 . S
O198 C193 1.209 . S
C199 O196 1.258 . S
C199 O201 1.282 . S
O200 Cd192 2.277 . S
O200 C193 1.226 . S
O201 Cd192 2.356 . S
O201 C199 1.282 . S
C202 O203 1.306 . S
C202 O205 1.160 . S
O203 C202 1.306 . S
O203 Cd204 2.228 . S
Cd204 O203 2.228 . S
Cd204 O208 2.273 . S
Cd204 O212 2.277 . S
O205 C202 1.160 . S
O205 Cd206 2.203 . S
Cd206 O205 2.203 . S
Cd206 O208 2.411 . S
Cd206 O209 2.333 . S
Cd206 O210 2.352 . S
Cd206 O214 2.277 . S
Cd206 O215 2.356 . S
C207 O212 1.209 . S
C207 O214 1.226 . S
O208 Cd204 2.273 . S
O208 Cd206 2.411 . S
O208 C211 1.320 . S
O209 Cd206 2.333 . S
O209 C211 1.214 . S
O210 Cd206 2.352 . S
O210 C213 1.258 . S
C211 O208 1.320 . S
C211 O209 1.214 . S
O212 Cd204 2.277 . S
O212 C207 1.209 . S
C213 O210 1.258 . S
C213 O215 1.282 . S
O214 Cd206 2.277 . S
O214 C207 1.226 . S
O215 Cd206 2.356 . S
O215 C213 1.282 . S
C129 C5 1.526 . S
C143 C18 1.601 . S
C151 C31 1.647 . S
C42 C109 1.325 1_545 S
C57 C115 1.619 . S
C70 C123 1.607 . S
C137 C81 1.720 1_565 S
C157 C96 1.599 . S
C29 C185 1.792 . S
C199 C44 1.594 . S
C3 C207 1.736 . S
C171 C16 1.878 1_655 S
C83 C165 1.543 . S
C94 C179 1.403 . S
C193 C55 1.452 1_654 S
C68 C213 1.451 . S
C132 C1 1.395 . S
C155 C14 1.502 . S
C27 C113 1.493 . S
C49 C118 1.400 . S
C53 C146 1.982 . S
C104 C66 2.013 . S
C127 C88 2.315 1_565 S
C141 C92 2.120 . S
C188 C36 2.183 . S
C211 C40 2.044 . S
C10 C160 2.188 . S
C174 C23 2.207 . S
C202 C79 1.406 . S
C101 C169 1.552 . S
C183 C62 1.543 . S
C197 C75 1.536 . S
