# Generated by pormake.
# Topology bcu-b, (8,8)-cn, num edge types: 1
# Building blocks:
#     Node 0, Type 0, BuildingBlock: TAGTUT_clean_sbu_3, # of connection points: 8
#     Node 1, Type 1, BuildingBlock: TAGTUT_clean_sbu_1, # of connection points: 8
#     Edge 2, Type (0, 1), BuildingBlock: EYOCIG_clean_linker_4, # of connection points: 2
#     Edge 3, Type (0, 1), BuildingBlock: EYOCIG_clean_linker_4, # of connection points: 2
#     Edge 4, Type (0, 1), BuildingBlock: EYOCIG_clean_linker_4, # of connection points: 2
#     Edge 5, Type (0, 1), BuildingBlock: EYOCIG_clean_linker_4, # of connection points: 2
#     Edge 6, Type (0, 1), BuildingBlock: EYOCIG_clean_linker_4, # of connection points: 2
#     Edge 7, Type (0, 1), BuildingBlock: EYOCIG_clean_linker_4, # of connection points: 2
#     Edge 8, Type (0, 1), BuildingBlock: EYOCIG_clean_linker_4, # of connection points: 2
#     Edge 9, Type (0, 1), BuildingBlock: EYOCIG_clean_linker_4, # of connection points: 2
# Relax obj value: 0.013
# Max RMSD: 0.079
# Mean RMSD: 0.068
data_MOF--net-bcu-b--node1-TAGTUT_clean_sbu_3--node2-TAGTUT_clean_sbu_1--edge1-EYOCIG_clean_linker_4
_symmetry_space_group_name_H-M    P1
_symmetry_Int_Tables_number       1
_symmetry_cell_setting            triclinic
loop_
_symmetry_equiv_pos_as_xyz
'x, y, z'
_cell_length_a     16.837438
_cell_length_b     16.214542
_cell_length_c     17.176297
_cell_angle_alpha  90.338308
_cell_angle_beta   90.925598
_cell_angle_gamma 109.33643
loop_
_atom_site_label
_atom_site_type_symbol
_atom_site_fract_x
_atom_site_fract_y
_atom_site_fract_z
_atom_type_partial_charge
C0 C 0.12063 0.12757 0.09421 0.0
C1 C 0.22239 0.85032 0.09432 0.0
C2 C 0.10936 0.81067 0.86471 0.0
Mg3 Mg 0.96489 0.16058 -0.00577 0.0
Mg4 Mg 0.79622 -0.01178 0.9631 0.0
O5 O 0.9115 0.04249 0.94393 0.0
Mg6 Mg -0.01341 -0.02 -0.01265 0.0
O7 O 0.06729 0.92449 0.03179 0.0
Mg8 Mg 0.17263 -0.00574 0.9771 0.0
Mg9 Mg 0.03893 0.80249 0.02775 0.0
C10 C 0.84434 0.83617 0.87889 0.0
O11 O 0.88898 0.89921 0.07495 0.0
O12 O 0.86937 0.2041 0.91558 0.0
O13 O 0.9168 0.77214 0.08313 0.0
O14 O 0.87053 0.13721 0.09245 0.0
O15 O 0.75626 0.08151 0.90008 0.0
O16 O 0.77125 0.00593 0.08506 0.0
O17 O 0.08843 0.05418 0.90364 0.0
O18 O 0.06398 0.18152 0.89815 0.0
C19 C 0.1056 0.13185 0.87754 0.0
C20 C 0.79451 0.16282 0.88873 0.0
O21 O 0.92219 0.86935 0.89961 0.0
O22 O 0.24394 0.92322 0.05757 0.0
O23 O 0.78669 0.8655 0.90297 0.0
O24 O 0.15788 0.88766 0.88265 0.0
O25 O 0.1474 0.79554 0.09219 0.0
O26 O 0.05104 0.76623 0.90903 0.0
O27 O 0.04457 0.09535 0.06909 0.0
O28 O 0.17839 0.09813 0.07134 0.0
C29 C 0.8073 0.07862 0.12038 0.0
C30 C 0.87216 0.82051 0.09919 0.0
C31 C 0.28724 0.65096 0.59066 0.0
C32 C 0.39472 0.67545 0.36364 0.0
C33 C 0.33956 0.32752 0.38656 0.0
Mg34 Mg 0.46628 0.67266 0.52946 0.0
O35 O 0.42046 0.55059 0.5271 0.0
Mg36 Mg 0.30927 0.4935 0.47251 0.0
Mg37 Mg 0.4843 0.47686 0.48432 0.0
O38 O 0.54624 0.40055 0.44313 0.0
Mg39 Mg 0.49476 0.28045 0.46217 0.0
Mg40 Mg 0.65996 0.45915 0.49282 0.0
C41 C 0.62523 0.62299 0.59346 0.0
C42 C 0.62547 0.59033 0.36393 0.0
O43 O 0.25631 0.58089 0.54956 0.0
O44 O 0.366 0.695 0.59406 0.0
O45 O 0.33962 0.60111 0.37765 0.0
O46 O 0.4551 0.71341 0.41122 0.0
O47 O 0.58586 0.67864 0.58788 0.0
O48 O 0.59765 0.547 0.56107 0.0
C49 C 0.33989 0.35854 0.60022 0.0
O50 O 0.41697 0.37924 0.57975 0.0
O51 O 0.28828 0.39167 0.56839 0.0
O52 O 0.70228 0.35811 0.41799 0.0
O53 O 0.58481 0.24078 0.39865 0.0
O54 O 0.63849 0.36514 0.59392 0.0
C55 C 0.66339 0.28109 0.38951 0.0
O56 O 0.51557 0.25637 0.58469 0.0
O57 O 0.37332 0.26934 0.40429 0.0
C58 C 0.58401 0.29768 0.62142 0.0
O59 O 0.3731 0.40829 0.40579 0.0
O60 O 0.55038 0.57394 0.38861 0.0
O61 O 0.67644 0.5545 0.39264 0.0
C62 C 0.16875 0.23106 0.21644 0.0
C63 C 0.13915 0.18496 0.16078 0.0
C64 C 0.21765 0.27424 0.28128 0.0
C65 C 0.27247 0.30419 0.32959 0.0
C66 C 0.75375 0.13805 0.24463 0.0
C67 C 0.77174 0.10235 0.189 0.0
C68 C 0.7324 0.19127 0.30063 0.0
C69 C 0.70728 0.23757 0.34196 0.0
C70 C 0.74763 0.74817 0.19442 0.0
C71 C 0.80301 0.78568 0.15074 0.0
C72 C 0.69229 0.69802 0.25056 0.0
C73 C 0.65513 0.65058 0.30146 0.0
C74 C 0.32488 0.79961 0.1854 0.0
C75 C 0.28341 0.8287 0.14239 0.0
C76 C 0.36068 0.75956 0.2429 0.0
C77 C 0.37926 0.72406 0.2986 0.0
C78 C 0.15147 0.73986 0.74038 0.0
C79 C 0.12936 0.76899 0.7976 0.0
C80 C 0.19045 0.70646 0.68175 0.0
C81 C 0.23197 0.67855 0.63914 0.0
C82 C 0.22123 0.20024 0.7726 0.0
C83 C 0.17 0.1639 0.82051 0.0
C84 C 0.27319 0.25023 0.71393 0.0
C85 C 0.30947 0.29847 0.66297 0.0
C86 C 0.7023 0.2299 0.80099 0.0
C87 C 0.75016 0.20691 0.8416 0.0
C88 C 0.64653 0.24744 0.74611 0.0
C89 C 0.60894 0.26256 0.69056 0.0
C90 C 0.79233 0.72175 0.76387 0.0
C91 C 0.82216 0.77318 0.81621 0.0
C92 C 0.74581 0.67402 0.69948 0.0
C93 C 0.69362 0.64242 0.64915 0.0
loop_
_geom_bond_atom_site_label_1
_geom_bond_atom_site_label_2
_geom_bond_distance
_geom_bond_site_symmetry_2
_ccdc_geom_bond_type
C0 O27 1.312 . S
C0 O28 1.208 . S
C1 O22 1.331 . S
C1 O25 1.244 . S
C2 O24 1.264 . S
C2 O26 1.273 . S
Mg3 O5 1.936 1_454 S
Mg3 O12 2.081 1_454 S
Mg3 O14 2.023 1_455 S
Mg3 O18 2.031 1_554 S
Mg3 O27 2.291 . S
Mg4 O5 1.963 . S
Mg4 O15 1.942 . S
Mg4 O16 1.955 1_556 S
Mg4 O23 1.986 1_545 S
O5 Mg3 1.936 1_656 S
O5 Mg4 1.963 . S
O5 Mg6 1.915 1_546 S
Mg6 O5 1.915 1_564 S
Mg6 O7 1.915 1_655 S
Mg6 O11 2.013 . S
Mg6 O17 2.114 1_664 S
Mg6 O21 2.013 1_554 S
Mg6 O27 2.114 1_665 S
O7 Mg6 1.915 1_455 S
O7 Mg8 1.936 1_565 S
O7 Mg9 1.963 . S
Mg8 O7 1.936 1_545 S
Mg8 O17 2.291 1_554 S
Mg8 O22 2.081 1_545 S
Mg8 O24 2.023 1_544 S
Mg8 O28 2.031 . S
Mg9 O7 1.963 . S
Mg9 O13 1.986 1_455 S
Mg9 O25 1.942 . S
Mg9 O26 1.955 1_554 S
C10 O21 1.191 . S
C10 O23 1.307 . S
O11 Mg6 2.013 . S
O11 C30 1.191 . S
O12 Mg3 2.081 1_656 S
O12 C20 1.331 . S
O13 Mg9 1.986 1_655 S
O13 C30 1.307 . S
O14 Mg3 2.023 1_655 S
O14 C29 1.264 . S
O15 Mg4 1.942 . S
O15 C20 1.244 . S
O16 Mg4 1.955 1_554 S
O16 C29 1.273 . S
O17 Mg6 2.114 1_446 S
O17 Mg8 2.291 1_556 S
O17 C19 1.312 . S
O18 Mg3 2.031 1_556 S
O18 C19 1.208 . S
C19 O17 1.312 . S
C19 O18 1.208 . S
C20 O12 1.331 . S
C20 O15 1.244 . S
O21 Mg6 2.013 1_556 S
O21 C10 1.191 . S
O22 C1 1.331 . S
O22 Mg8 2.081 1_565 S
O23 Mg4 1.986 1_565 S
O23 C10 1.307 . S
O24 C2 1.264 . S
O24 Mg8 2.023 1_566 S
O25 C1 1.244 . S
O25 Mg9 1.942 . S
O26 C2 1.273 . S
O26 Mg9 1.955 1_556 S
O27 C0 1.312 . S
O27 Mg3 2.291 . S
O27 Mg6 2.114 1_445 S
O28 C0 1.208 . S
O28 Mg8 2.031 . S
C29 O14 1.264 . S
C29 O16 1.273 . S
C30 O11 1.191 . S
C30 O13 1.307 . S
C31 O43 1.241 . S
C31 O44 1.280 . S
C32 O45 1.277 . S
C32 O46 1.245 . S
C33 O57 1.247 . S
C33 O59 1.289 . S
Mg34 O35 1.926 . S
Mg34 O44 1.984 . S
Mg34 O46 1.988 . S
Mg34 O47 2.061 . S
O35 Mg34 1.926 . S
O35 Mg36 1.986 . S
O35 Mg37 1.917 . S
Mg36 O35 1.986 . S
Mg36 O43 2.042 . S
Mg36 O45 2.041 . S
Mg36 O51 2.038 . S
Mg36 O59 2.238 . S
Mg37 O35 1.917 . S
Mg37 O38 1.917 . S
Mg37 O48 2.106 . S
Mg37 O50 2.079 . S
Mg37 O59 2.106 . S
Mg37 O60 2.079 . S
O38 Mg37 1.917 . S
O38 Mg39 1.926 . S
O38 Mg40 1.986 . S
Mg39 O38 1.926 . S
Mg39 O53 1.984 . S
Mg39 O56 1.988 . S
Mg39 O57 2.061 . S
Mg40 O38 1.986 . S
Mg40 O48 2.238 . S
Mg40 O52 2.042 . S
Mg40 O54 2.041 . S
Mg40 O61 2.038 . S
C41 O47 1.247 . S
C41 O48 1.289 . S
C42 O60 1.245 . S
C42 O61 1.274 . S
O43 C31 1.241 . S
O43 Mg36 2.042 . S
O44 C31 1.280 . S
O44 Mg34 1.984 . S
O45 C32 1.277 . S
O45 Mg36 2.041 . S
O46 C32 1.245 . S
O46 Mg34 1.988 . S
O47 Mg34 2.061 . S
O47 C41 1.247 . S
O48 Mg37 2.106 . S
O48 Mg40 2.238 . S
O48 C41 1.289 . S
C49 O50 1.245 . S
C49 O51 1.274 . S
O50 Mg37 2.079 . S
O50 C49 1.245 . S
O51 Mg36 2.038 . S
O51 C49 1.274 . S
O52 Mg40 2.042 . S
O52 C55 1.241 . S
O53 Mg39 1.984 . S
O53 C55 1.280 . S
O54 Mg40 2.041 . S
O54 C58 1.277 . S
C55 O52 1.241 . S
C55 O53 1.280 . S
O56 Mg39 1.988 . S
O56 C58 1.245 . S
O57 C33 1.247 . S
O57 Mg39 2.061 . S
C58 O54 1.277 . S
C58 O56 1.245 . S
O59 C33 1.289 . S
O59 Mg36 2.238 . S
O59 Mg37 2.106 . S
O60 Mg37 2.079 . S
O60 C42 1.245 . S
O61 Mg40 2.038 . S
O61 C42 1.274 . S
C62 C63 1.170 . S
C62 C64 1.380 . S
C63 C62 1.170 . S
C64 C62 1.380 . S
C64 C65 1.170 . S
C65 C64 1.170 . S
C66 C67 1.170 . S
C66 C68 1.380 . S
C67 C66 1.170 . S
C68 C66 1.380 . S
C68 C69 1.170 . S
C69 C68 1.170 . S
C70 C71 1.170 . S
C70 C72 1.380 . S
C71 C70 1.170 . S
C72 C70 1.380 . S
C72 C73 1.170 . S
C73 C72 1.170 . S
C74 C75 1.170 . S
C74 C76 1.380 . S
C75 C74 1.170 . S
C76 C74 1.380 . S
C76 C77 1.170 . S
C77 C76 1.170 . S
C78 C79 1.170 . S
C78 C80 1.380 . S
C79 C78 1.170 . S
C80 C78 1.380 . S
C80 C81 1.170 . S
C81 C80 1.170 . S
C82 C83 1.170 . S
C82 C84 1.380 . S
C83 C82 1.170 . S
C84 C82 1.380 . S
C84 C85 1.170 . S
C85 C84 1.170 . S
C86 C87 1.170 . S
C86 C88 1.380 . S
C87 C86 1.170 . S
C88 C86 1.380 . S
C88 C89 1.170 . S
C89 C88 1.170 . S
C90 C91 1.170 . S
C90 C92 1.380 . S
C91 C90 1.170 . S
C92 C90 1.380 . S
C92 C93 1.170 . S
C93 C92 1.170 . S
C63 C0 1.205 . S
C65 C33 1.233 . S
C67 C29 1.600 . S
C69 C55 1.545 . S
C71 C30 1.437 . S
C73 C42 1.447 . S
C75 C1 1.558 . S
C77 C32 1.578 . S
C79 C2 1.561 . S
C81 C31 1.568 . S
C85 C49 1.458 . S
C83 C19 1.453 . S
C87 C20 1.591 . S
C89 C58 1.568 . S
C93 C41 1.187 . S
C91 C10 1.165 . S
