# Generated by pormake.
# Topology scu, (8,4)-cn, num edge types: 1
# Building blocks:
#     Node 0, Type 0, BuildingBlock: GIZVER_clean_sbu_0, # of connection points: 8
#     Node 1, Type 1, BuildingBlock: MUDLON_clean_sbu_0, # of connection points: 4
#     Node 2, Type 1, BuildingBlock: MUDLON_clean_sbu_0, # of connection points: 4
#     Edge 3, Type (0, 1), BuildingBlock: EZIPEK_clean_linker_0, # of connection points: 2
#     Edge 4, Type (0, 1), BuildingBlock: EZIPEK_clean_linker_0, # of connection points: 2
#     Edge 5, Type (0, 1), BuildingBlock: EZIPEK_clean_linker_0, # of connection points: 2
#     Edge 6, Type (0, 1), BuildingBlock: EZIPEK_clean_linker_0, # of connection points: 2
#     Edge 7, Type (0, 1), BuildingBlock: EZIPEK_clean_linker_0, # of connection points: 2
#     Edge 8, Type (0, 1), BuildingBlock: EZIPEK_clean_linker_0, # of connection points: 2
#     Edge 9, Type (0, 1), BuildingBlock: EZIPEK_clean_linker_0, # of connection points: 2
#     Edge 10, Type (0, 1), BuildingBlock: EZIPEK_clean_linker_0, # of connection points: 2
# Relax obj value: 0.008
# Max RMSD: 0.064
# Mean RMSD: 0.039
data_MOF--net-scu--node1-GIZVER_clean_sbu_0--node2-MUDLON_clean_sbu_0--edge1-EZIPEK_clean_linker_0
_symmetry_space_group_name_H-M    P1
_symmetry_Int_Tables_number       1
_symmetry_cell_setting            triclinic
loop_
_symmetry_equiv_pos_as_xyz
'x, y, z'
_cell_length_a     17.954329
_cell_length_b     18.45659
_cell_length_c     16.615339
_cell_angle_alpha  103.34446
_cell_angle_beta   78.51738
_cell_angle_gamma 116.59889
loop_
_atom_site_label
_atom_site_type_symbol
_atom_site_fract_x
_atom_site_fract_y
_atom_site_fract_z
_atom_type_partial_charge
Co0 Co 0.02744 0.94959 0.30368 0.0
Co1 Co 0.14986 0.05732 0.22163 0.0
Co2 Co 0.99245 0.02201 0.14662 0.0
O3 O 0.04883 0.97075 0.19173 0.0
H4 H 0.05887 0.92825 0.15132 0.0
O5 O 0.93979 0.07665 0.10048 0.0
Co6 Co -0.00553 0.11818 0.99748 0.0
Co7 Co 0.8501 1.00774 1.04285 0.0
H8 H 0.92305 0.11398 0.14243 0.0
O9 O 0.24101 0.04087 0.22694 0.0
O10 O 0.13842 0.0436 0.33101 0.0
O11 O 0.1692 0.16964 0.22298 0.0
O12 O 0.0338 0.12896 0.22774 0.0
O13 O 0.09538 0.0612 0.06599 0.0
O14 O 0.04526 0.16368 0.90784 0.0
O15 O 0.97506 0.2101 1.01947 0.0
O16 O 0.02602 0.02977 0.95889 0.0
O17 O 0.9469 0.91426 0.06515 0.0
O18 O 0.82983 0.8945 1.0174 0.0
O19 O 0.88689 0.05482 0.94603 0.0
O20 O 0.77035 0.04132 1.03584 0.0
C21 C 0.04949 0.87747 0.36485 0.0
C22 C 0.8972 0.99318 0.30712 0.0
C23 C 0.10597 0.18569 0.24212 0.0
C24 C 0.21313 0.04514 0.30551 0.0
C25 C 0.01911 0.21895 0.94647 0.0
C26 C 0.0891 0.03658 0.98859 0.0
C27 C 0.88494 0.87071 1.02166 0.0
C28 C 0.81674 0.06357 0.96733 0.0
O29 O 0.01062 0.9223 0.40476 0.0
O30 O 0.07564 0.87942 0.28586 0.0
O31 O 0.89224 0.98083 0.22901 0.0
O32 O 0.96688 1.01637 0.33576 0.0
Mg33 Mg 0.02866 0.54205 0.65399 0.0
C34 C 0.07614 0.43573 0.51223 0.0
O35 O 0.14723 0.49385 0.53689 0.0
C36 C 0.95619 0.62082 0.79279 0.0
O37 O 0.03444 0.64362 0.80382 0.0
C38 C 0.11475 0.48009 0.75604 0.0
O39 O 0.17302 0.4848 0.69318 0.0
O40 O 0.06162 0.50756 0.75521 0.0
O41 O 0.00789 0.43787 0.55055 0.0
O42 O 0.08902 0.65703 0.60144 0.0
C43 C 0.09909 0.6551 0.52288 0.0
O44 O 0.09902 0.5887 0.47314 0.0
O45 O 0.92682 0.56886 0.72861 0.0
Mg46 Mg 0.51556 0.06112 0.64038 0.0
C47 C 0.4776 0.10656 0.49662 0.0
O48 O 0.53492 0.08182 0.45602 0.0
C49 C 0.62169 0.11124 0.77667 0.0
O50 O 0.55034 0.05589 0.80537 0.0
C51 C 0.33921 1.00787 0.72376 0.0
O52 O 0.33035 0.0279 0.65666 0.0
O53 O 0.40828 1.00713 0.73024 0.0
O54 O 0.47164 0.12183 0.57562 0.0
O55 O 0.55526 0.98172 0.54147 0.0
C56 C 0.61104 0.96175 0.5527 0.0
O57 O 0.62112 0.96211 0.62884 0.0
O58 O 0.62571 0.13383 0.70853 0.0
C59 C 0.05099 0.29486 0.29915 0.0
C60 C 0.11125 0.26426 0.29841 0.0
C61 C 0.13799 0.33804 0.43906 0.0
C62 C 0.0794 0.3705 0.44088 0.0
N63 N 0.99169 0.39253 0.36488 0.0
N64 N 0.24137 0.29825 0.35101 0.0
C65 C 0.03848 0.35221 0.3688 0.0
C66 C 0.16396 0.29825 0.36304 0.0
N67 N 0.00875 0.2717 0.23123 0.0
N68 N 0.1676 0.34302 0.51064 0.0
H69 H 0.26871 0.2809 0.29299 0.0
H70 H 0.28355 0.32828 0.39562 0.0
H71 H 0.14519 0.36585 0.56891 0.0
H72 H 0.20638 0.31531 0.51279 0.0
H73 H 0.9559 0.28113 0.23055 0.0
H74 H 0.02814 0.24295 0.1748 0.0
H75 H 0.96707 0.38815 0.31141 0.0
H76 H 0.98154 0.43502 0.41374 0.0
C77 C 0.79654 0.04863 0.39079 0.0
C78 C 0.82113 0.98314 0.36616 0.0
C79 C 0.70135 0.8994 0.45579 0.0
C80 C 0.68126 0.96761 0.48608 0.0
N81 N 0.72001 0.11272 0.49455 0.0
N82 N 0.80301 0.84849 0.37865 0.0
C83 C 0.73124 0.04366 0.45651 0.0
C84 C 0.77521 0.90906 0.39967 0.0
N85 N 0.83539 0.11563 0.35112 0.0
N86 N 0.64841 0.82489 0.47887 0.0
H87 H 0.85437 0.85177 0.33473 0.0
H88 H 0.77847 0.79713 0.40795 0.0
H89 H 0.59411 0.81609 0.52005 0.0
H90 H 0.65447 0.77059 0.45273 0.0
H91 H 0.8139 0.16104 0.3595 0.0
H92 H 0.88529 0.12268 0.30449 0.0
H93 H 0.76097 0.17142 0.48234 0.0
H94 H 0.67462 0.11337 0.54427 0.0
C95 C 0.01407 0.736 0.38884 0.0
C96 C 0.06086 0.822 0.40865 0.0
C97 C 0.13404 0.79998 0.50478 0.0
C98 C 0.08413 0.71431 0.48799 0.0
N99 N 0.95767 0.60511 0.43587 0.0
N100 N 0.14932 0.93661 0.50157 0.0
C101 C 0.01883 0.68339 0.43596 0.0
C102 C 0.11578 0.85437 0.47184 0.0
N103 N 0.96377 0.70422 0.32594 0.0
N104 N 0.20074 0.82925 0.54938 0.0
H105 H 0.13729 0.97829 0.47944 0.0
H106 H 0.18327 0.96254 0.55289 0.0
H107 H 0.21613 0.79119 0.57395 0.0
H108 H 0.24477 0.89017 0.55586 0.0
H109 H 0.93659 0.64173 0.30229 0.0
H110 H 0.95336 0.74039 0.29358 0.0
H111 H 0.90437 0.58191 0.40521 0.0
H112 H 0.95453 0.56654 0.47468 0.0
C113 C 0.30298 0.99631 0.35622 0.0
C114 C 0.27039 0.05548 0.36514 0.0
C115 C 0.37365 0.14909 0.46198 0.0
C116 C 0.40414 0.08887 0.45463 0.0
N117 N 0.3753 0.94487 0.42009 0.0
N118 N 0.25962 0.17832 0.44541 0.0
C119 C 0.3623 1.00936 0.40911 0.0
C120 C 0.30053 0.12855 0.42435 0.0
N121 N 0.27743 0.92727 0.29749 0.0
N122 N 0.41655 0.22703 0.50156 0.0
H123 H 0.20654 0.16674 0.41935 0.0
H124 H 0.2736 0.22673 0.49509 0.0
H125 H 0.47053 0.24445 0.52943 0.0
H126 H 0.40283 0.27599 0.50055 0.0
H127 H 0.30687 0.88762 0.28195 0.0
H128 H 0.23038 0.91196 0.26054 0.0
H129 H 0.34001 0.88417 0.39484 0.0
H130 H 0.41347 0.95022 0.46291 0.0
C131 C 0.90026 0.80057 0.87403 0.0
C132 C 0.8868 0.79781 0.96119 0.0
C133 C 0.88915 0.66198 0.93085 0.0
C134 C 0.91288 0.66998 0.84558 0.0
N135 N 0.94589 0.74759 0.73509 0.0
N136 N 0.86849 0.7269 0.07345 0.0
C137 C 0.9177 0.73847 0.81663 0.0
C138 C 0.88062 0.72835 0.98984 0.0
N139 N 0.89883 0.86375 0.84563 0.0
N140 N 0.8747 0.5903 0.95469 0.0
H141 H 0.85753 0.77232 0.11776 0.0
H142 H 0.87257 0.68287 0.09954 0.0
H143 H 0.8799 0.54103 0.912 0.0
H144 H 0.85125 0.57675 1.01452 0.0
H145 H 0.89527 0.86271 0.78356 0.0
H146 H 0.89708 0.91615 0.88392 0.0
H147 H 0.96438 0.80188 0.71238 0.0
H148 H 0.95539 0.70193 0.69005 0.0
C149 C 0.15669 0.95025 0.894 0.0
C150 C 0.16049 0.02922 0.93054 0.0
C151 C 0.29272 0.09272 0.84419 0.0
C152 C 0.28168 1.01371 0.79939 0.0
N153 N 0.20068 0.86725 0.77622 0.0
N154 N 0.2292 0.17636 0.93836 0.0
C155 C 0.21306 0.94231 0.8229 0.0
C156 C 0.22823 0.10083 0.90568 0.0
N157 N 0.10157 0.88336 0.92947 0.0
N158 N 0.36529 0.15989 0.82834 0.0
H159 H 0.18473 0.18509 0.98566 0.0
H160 H 0.27093 0.22992 0.91523 0.0
H161 H 0.41351 0.15659 0.78292 0.0
H162 H 0.38094 0.21772 0.86465 0.0
H163 H 0.09962 0.8248 0.90953 0.0
H164 H 0.06451 0.88862 0.98518 0.0
H165 H 0.1461 0.81416 0.78396 0.0
H166 H 0.24299 0.85912 0.72595 0.0
C167 C 0.08481 0.37088 0.93792 0.0
C168 C 0.03652 0.28804 0.90292 0.0
C169 C 0.03358 0.33406 0.77645 0.0
C170 C 0.08862 0.41522 0.80771 0.0
N171 N 0.17074 0.51226 0.91501 0.0
N172 N 0.97392 0.18983 0.78368 0.0
C173 C 0.11496 0.43419 0.88793 0.0
C174 C 0.01334 0.26954 0.82089 0.0
N175 N 0.10306 0.38885 1.0182 0.0
N176 N -0.00163 0.3186 0.70492 0.0
H177 H 0.95181 0.13988 0.81444 0.0
H178 H 0.9675 0.17246 0.72029 0.0
H179 H 0.01349 0.36296 0.66813 0.0
H180 H 0.94885 0.26339 0.68537 0.0
H181 H 0.13008 0.44825 1.05056 0.0
H182 H 0.08728 0.34415 0.05482 0.0
H183 H 0.19964 0.52944 0.96901 0.0
H184 H 0.19226 0.55969 0.88031 0.0
C185 C 0.75175 0.15305 0.94775 0.0
C186 C 0.7855 0.09467 0.91209 0.0
C187 C 0.75101 0.0936 0.77651 0.0
C188 C 0.69752 0.1318 0.8161 0.0
N189 N 0.65001 0.20351 0.93986 0.0
N190 N 0.80562 1.0001 0.79073 0.0
C191 C 0.6997 0.16425 0.90191 0.0
C192 C 0.78303 0.06295 0.82562 0.0
N193 N 0.77019 0.19827 1.0246 0.0
N194 N 0.77072 0.08601 0.69239 0.0
H195 H 0.82443 0.97158 0.82466 0.0
H196 H 0.79739 0.97092 0.72934 0.0
H197 H 0.75149 0.11216 0.65599 0.0
H198 H 0.81406 0.06303 0.66117 0.0
H199 H 0.75267 0.24615 1.05062 0.0
H200 H 0.81049 0.19358 0.05848 0.0
H201 H 0.64102 0.22002 1.00417 0.0
H202 H 0.61523 0.21641 0.90629 0.0
loop_
_geom_bond_atom_site_label_1
_geom_bond_atom_site_label_2
_geom_bond_distance
_geom_bond_site_symmetry_2
_ccdc_geom_bond_type
Co0 O3 2.042 1_565 S
Co0 O10 2.264 1_565 S
Co0 O29 2.286 1_455 S
Co0 O30 2.069 . S
Co0 O32 2.015 1_455 S
Co1 O3 2.122 . S
Co1 O9 2.073 . S
Co1 O10 2.327 . S
Co1 O11 1.976 . S
Co2 O3 2.087 . S
Co2 O5 2.087 1_455 S
Co2 O12 2.111 . S
Co2 O13 2.143 . S
Co2 O17 2.111 1_445 S
Co2 O31 2.143 1_445 S
O3 Co0 2.042 1_545 S
O3 Co1 2.122 . S
O3 Co2 2.087 . S
O3 H4 0.980 1_545 S
H4 O3 0.980 1_565 S
O5 Co2 2.087 1_655 S
O5 Co6 2.042 1_654 S
O5 Co7 2.122 1_544 S
O5 H8 0.980 . S
Co6 O5 2.042 1_456 S
Co6 O14 2.286 . S
Co6 O15 2.069 1_455 S
Co6 O16 2.015 . S
Co6 O19 2.264 1_455 S
Co7 O5 2.122 1_566 S
Co7 O18 1.976 . S
Co7 O19 2.327 1_565 S
Co7 O20 2.073 . S
H8 O5 0.980 . S
O9 Co1 2.073 . S
O9 C24 1.245 . S
O10 Co0 2.264 1_545 S
O10 Co1 2.327 . S
O10 C24 1.257 . S
O11 Co1 1.976 . S
O11 C23 1.251 . S
O12 Co2 2.111 . S
O12 C23 1.274 . S
O13 Co2 2.143 . S
O13 C26 1.246 1_554 S
O14 Co6 2.286 . S
O14 C25 1.259 . S
O15 Co6 2.069 1_655 S
O15 C25 1.289 1_655 S
O16 Co6 2.015 . S
O16 C26 1.257 . S
O17 Co2 2.111 1_665 S
O17 C27 1.274 1_554 S
O18 Co7 1.976 . S
O18 C27 1.251 . S
O19 Co6 2.264 1_655 S
O19 Co7 2.327 1_545 S
O19 C28 1.257 . S
O20 Co7 2.073 . S
O20 C28 1.245 1_565 S
C21 O29 1.259 1_455 S
C21 O30 1.289 . S
C22 O31 1.246 . S
C22 O32 1.257 . S
C23 O11 1.251 . S
C23 O12 1.274 . S
C24 O9 1.245 . S
C24 O10 1.257 . S
C25 O14 1.259 . S
C25 O15 1.289 1_455 S
C26 O13 1.246 1_556 S
C26 O16 1.257 . S
C27 O17 1.274 1_556 S
C27 O18 1.251 . S
C28 O19 1.257 . S
C28 O20 1.245 1_545 S
O29 Co0 2.286 1_655 S
O29 C21 1.259 1_655 S
O30 Co0 2.069 . S
O30 C21 1.289 . S
O31 Co2 2.143 1_665 S
O31 C22 1.246 . S
O32 Co0 2.015 1_655 S
O32 C22 1.257 . S
Mg33 O40 2.141 . S
Mg33 O41 2.048 . S
Mg33 O42 2.048 . S
Mg33 O45 2.141 . S
C34 O35 1.313 . S
C34 O41 1.195 1_455 S
O35 C34 1.313 . S
C36 O37 1.245 . S
C36 O45 1.289 1_455 S
O37 C36 1.245 . S
C38 O39 1.245 . S
C38 O40 1.289 1_455 S
O39 C38 1.245 . S
O40 Mg33 2.141 . S
O40 C38 1.289 1_655 S
O41 Mg33 2.048 . S
O41 C34 1.195 1_655 S
O42 Mg33 2.048 . S
O42 C43 1.195 1_655 S
C43 O42 1.195 1_455 S
C43 O44 1.313 . S
O44 C43 1.313 . S
O45 Mg33 2.141 . S
O45 C36 1.289 1_655 S
Mg46 O53 2.141 . S
Mg46 O54 2.048 . S
Mg46 O55 2.048 . S
Mg46 O58 2.141 . S
C47 O48 1.313 1_545 S
C47 O54 1.195 . S
O48 C47 1.313 1_565 S
C49 O50 1.245 1_545 S
C49 O58 1.289 . S
O50 C49 1.245 1_565 S
C51 O52 1.245 1_545 S
C51 O53 1.289 . S
O52 C51 1.245 1_565 S
O53 Mg46 2.141 . S
O53 C51 1.289 . S
O54 Mg46 2.048 . S
O54 C47 1.195 . S
O55 Mg46 2.048 . S
O55 C56 1.195 . S
C56 O55 1.195 . S
C56 O57 1.313 1_545 S
O57 C56 1.313 1_565 S
O58 Mg46 2.141 . S
O58 C49 1.289 . S
C59 C60 1.363 1_655 S
C59 C65 1.379 . S
C59 N67 1.356 . S
C60 C59 1.363 1_455 S
C60 C66 1.363 . S
C61 C62 1.363 . S
C61 C66 1.379 . S
C61 N68 1.356 . S
C62 C61 1.363 . S
C62 C65 1.363 1_455 S
N63 C65 1.356 . S
N63 H75 0.984 . S
N63 H76 0.985 . S
N64 C66 1.356 . S
N64 H69 0.984 . S
N64 H70 0.985 . S
C65 C59 1.379 . S
C65 C62 1.363 1_655 S
C65 N63 1.356 . S
C66 C60 1.363 . S
C66 C61 1.379 . S
C66 N64 1.356 . S
N67 C59 1.356 . S
N67 H73 0.984 . S
N67 H74 0.984 . S
N68 C61 1.356 . S
N68 H71 0.984 . S
N68 H72 0.985 . S
H69 N64 0.984 . S
H70 N64 0.985 . S
H71 N68 0.984 . S
H72 N68 0.985 . S
H73 N67 0.984 . S
H74 N67 0.984 . S
H75 N63 0.984 . S
H76 N63 0.985 . S
C77 C78 1.363 . S
C77 C83 1.379 . S
C77 N85 1.356 . S
C78 C77 1.363 . S
C78 C84 1.363 1_545 S
C79 C80 1.363 1_565 S
C79 C84 1.379 . S
C79 N86 1.356 . S
C80 C79 1.363 1_545 S
C80 C83 1.363 . S
N81 C83 1.356 . S
N81 H93 0.984 . S
N81 H94 0.985 . S
N82 C84 1.356 . S
N82 H87 0.984 . S
N82 H88 0.985 . S
C83 C77 1.379 . S
C83 C80 1.363 . S
C83 N81 1.356 . S
C84 C78 1.363 1_565 S
C84 C79 1.379 . S
C84 N82 1.356 . S
N85 C77 1.356 . S
N85 H91 0.984 . S
N85 H92 0.984 . S
N86 C79 1.356 . S
N86 H89 0.984 . S
N86 H90 0.985 . S
H87 N82 0.984 . S
H88 N82 0.985 . S
H89 N86 0.984 . S
H90 N86 0.985 . S
H91 N85 0.984 . S
H92 N85 0.984 . S
H93 N81 0.984 . S
H94 N81 0.985 . S
C95 C96 1.363 1_655 S
C95 C101 1.379 . S
C95 N103 1.356 . S
C96 C95 1.363 1_455 S
C96 C102 1.363 . S
C97 C98 1.363 . S
C97 C102 1.379 . S
C97 N104 1.356 . S
C98 C97 1.363 . S
C98 C101 1.363 1_455 S
N99 C101 1.356 . S
N99 H111 0.984 . S
N99 H112 0.985 . S
N100 C102 1.356 . S
N100 H105 0.984 . S
N100 H106 0.985 . S
C101 C95 1.379 . S
C101 C98 1.363 1_655 S
C101 N99 1.356 . S
C102 C96 1.363 . S
C102 C97 1.379 . S
C102 N100 1.356 . S
N103 C95 1.356 . S
N103 H109 0.984 . S
N103 H110 0.984 . S
N104 C97 1.356 . S
N104 H107 0.984 . S
N104 H108 0.985 . S
H105 N100 0.984 . S
H106 N100 0.985 . S
H107 N104 0.984 . S
H108 N104 0.985 . S
H109 N103 0.984 . S
H110 N103 0.984 . S
H111 N99 0.984 . S
H112 N99 0.985 . S
C113 C114 1.363 1_565 S
C113 C119 1.379 . S
C113 N121 1.356 . S
C114 C113 1.363 1_545 S
C114 C120 1.363 . S
C115 C116 1.363 . S
C115 C120 1.379 . S
C115 N122 1.356 . S
C116 C115 1.363 . S
C116 C119 1.363 1_545 S
N117 C119 1.356 . S
N117 H129 0.984 . S
N117 H130 0.985 . S
N118 C120 1.356 . S
N118 H123 0.984 . S
N118 H124 0.985 . S
C119 C113 1.379 . S
C119 C116 1.363 1_565 S
C119 N117 1.356 . S
C120 C114 1.363 . S
C120 C115 1.379 . S
C120 N118 1.356 . S
N121 C113 1.356 . S
N121 H127 0.984 . S
N121 H128 0.984 . S
N122 C115 1.356 . S
N122 H125 0.984 . S
N122 H126 0.985 . S
H123 N118 0.984 . S
H124 N118 0.985 . S
H125 N122 0.984 . S
H126 N122 0.985 . S
H127 N121 0.984 . S
H128 N121 0.984 . S
H129 N117 0.984 . S
H130 N117 0.985 . S
C131 C132 1.363 . S
C131 C137 1.379 . S
C131 N139 1.356 . S
C132 C131 1.363 . S
C132 C138 1.363 . S
C133 C134 1.363 . S
C133 C138 1.379 . S
C133 N140 1.356 1_455 S
C134 C133 1.363 . S
C134 C137 1.363 . S
N135 C137 1.356 . S
N135 H147 0.984 . S
N135 H148 0.985 . S
N136 C138 1.356 1_655 S
N136 H141 0.984 1_556 S
N136 H142 0.985 1_556 S
C137 C131 1.379 . S
C137 C134 1.363 . S
C137 N135 1.356 . S
C138 C132 1.363 . S
C138 C133 1.379 . S
C138 N136 1.356 1_455 S
N139 C131 1.356 . S
N139 H145 0.984 . S
N139 H146 0.984 . S
N140 C133 1.356 1_655 S
N140 H143 0.984 . S
N140 H144 0.985 . S
H141 N136 0.984 1_554 S
H142 N136 0.985 1_554 S
H143 N140 0.984 . S
H144 N140 0.985 . S
H145 N139 0.984 . S
H146 N139 0.984 . S
H147 N135 0.984 . S
H148 N135 0.985 . S
C149 C150 1.363 1_565 S
C149 C155 1.379 . S
C149 N157 1.356 . S
C150 C149 1.363 1_545 S
C150 C156 1.363 . S
C151 C152 1.363 . S
C151 C156 1.379 . S
C151 N158 1.356 . S
C152 C151 1.363 . S
C152 C155 1.363 1_545 S
N153 C155 1.356 . S
N153 H165 0.984 . S
N153 H166 0.985 . S
N154 C156 1.356 . S
N154 H159 0.984 . S
N154 H160 0.985 . S
C155 C149 1.379 . S
C155 C152 1.363 1_565 S
C155 N153 1.356 . S
C156 C150 1.363 . S
C156 C151 1.379 . S
C156 N154 1.356 . S
N157 C149 1.356 . S
N157 H163 0.984 . S
N157 H164 0.984 . S
N158 C151 1.356 . S
N158 H161 0.984 . S
N158 H162 0.985 . S
H159 N154 0.984 . S
H160 N154 0.985 . S
H161 N158 0.984 . S
H162 N158 0.985 . S
H163 N157 0.984 . S
H164 N157 0.984 . S
H165 N153 0.984 . S
H166 N153 0.985 . S
C167 C168 1.363 . S
C167 C173 1.379 . S
C167 N175 1.356 . S
C168 C167 1.363 . S
C168 C174 1.363 . S
C169 C170 1.363 . S
C169 C174 1.379 . S
C169 N176 1.356 . S
C170 C169 1.363 . S
C170 C173 1.363 . S
N171 C173 1.356 . S
N171 H183 0.984 . S
N171 H184 0.985 . S
N172 C174 1.356 . S
N172 H177 0.984 . S
N172 H178 0.985 . S
C173 C167 1.379 . S
C173 C170 1.363 . S
C173 N171 1.356 . S
C174 C168 1.363 . S
C174 C169 1.379 . S
C174 N172 1.356 . S
N175 C167 1.356 . S
N175 H181 0.984 . S
N175 H182 0.984 . S
N176 C169 1.356 . S
N176 H179 0.984 . S
N176 H180 0.985 . S
H177 N172 0.984 . S
H178 N172 0.985 . S
H179 N176 0.984 . S
H180 N176 0.985 . S
H181 N175 0.984 . S
H182 N175 0.984 . S
H183 N171 0.984 . S
H184 N171 0.985 . S
C185 C186 1.363 . S
C185 C191 1.379 . S
C185 N193 1.356 . S
C186 C185 1.363 . S
C186 C192 1.363 1_545 S
C187 C188 1.363 1_565 S
C187 C192 1.379 . S
C187 N194 1.356 . S
C188 C187 1.363 1_545 S
C188 C191 1.363 . S
N189 C191 1.356 . S
N189 H201 0.984 . S
N189 H202 0.985 . S
N190 C192 1.356 . S
N190 H195 0.984 . S
N190 H196 0.985 . S
C191 C185 1.379 . S
C191 C188 1.363 . S
C191 N189 1.356 . S
C192 C186 1.363 1_565 S
C192 C187 1.379 . S
C192 N190 1.356 . S
N193 C185 1.356 . S
N193 H199 0.984 . S
N193 H200 0.984 . S
N194 C187 1.356 . S
N194 H197 0.984 . S
N194 H198 0.985 . S
H195 N190 0.984 . S
H196 N190 0.985 . S
H197 N194 0.984 . S
H198 N194 0.985 . S
H199 N193 0.984 . S
H200 N193 0.984 . S
H201 N189 0.984 . S
H202 N189 0.985 . S
C60 C23 1.349 . S
C62 C34 1.422 . S
C78 C22 1.454 1_545 S
C80 C56 1.493 . S
C96 C21 1.641 . S
C98 C43 1.647 . S
C114 C24 1.473 . S
C116 C47 1.529 . S
C132 C27 1.294 1_455 S
C134 C36 1.368 . S
C150 C26 1.397 . S
C152 C51 1.444 . S
C170 C38 1.597 . S
C168 C25 1.587 . S
C186 C28 1.428 . S
C188 C49 1.489 . S
