# Generated by pormake.
# Topology bcu-b, (8,8)-cn, num edge types: 1
# Building blocks:
#     Node 0, Type 0, BuildingBlock: TAGTUT_clean_sbu_3, # of connection points: 8
#     Node 1, Type 1, BuildingBlock: TAGTUT_clean_sbu_3, # of connection points: 8
#     Edge 2, Type (0, 1), BuildingBlock: EZIPEK_clean_linker_0, # of connection points: 2
#     Edge 3, Type (0, 1), BuildingBlock: EZIPEK_clean_linker_0, # of connection points: 2
#     Edge 4, Type (0, 1), BuildingBlock: EZIPEK_clean_linker_0, # of connection points: 2
#     Edge 5, Type (0, 1), BuildingBlock: EZIPEK_clean_linker_0, # of connection points: 2
#     Edge 6, Type (0, 1), BuildingBlock: EZIPEK_clean_linker_0, # of connection points: 2
#     Edge 7, Type (0, 1), BuildingBlock: EZIPEK_clean_linker_0, # of connection points: 2
#     Edge 8, Type (0, 1), BuildingBlock: EZIPEK_clean_linker_0, # of connection points: 2
#     Edge 9, Type (0, 1), BuildingBlock: EZIPEK_clean_linker_0, # of connection points: 2
# Relax obj value: 0.008
# Max RMSD: 0.054
# Mean RMSD: 0.054
data_MOF--net-bcu-b--node1-TAGTUT_clean_sbu_3--node2-TAGTUT_clean_sbu_3--edge1-EZIPEK_clean_linker_0
_symmetry_space_group_name_H-M    P1
_symmetry_Int_Tables_number       1
_symmetry_cell_setting            triclinic
loop_
_symmetry_equiv_pos_as_xyz
'x, y, z'
_cell_length_a     15.202175
_cell_length_b     15.13833
_cell_length_c     16.232619
_cell_angle_alpha  90.691961
_cell_angle_beta   87.784929
_cell_angle_gamma 111.57859
loop_
_atom_site_label
_atom_site_type_symbol
_atom_site_fract_x
_atom_site_fract_y
_atom_site_fract_z
_atom_type_partial_charge
C0 C 0.16768 0.11556 0.07659 0.0
C1 C 0.15517 0.78876 0.12332 0.0
C2 C 0.06701 0.71794 0.87474 0.0
Mg3 Mg 0.04993 0.20607 0.96587 0.0
Mg4 Mg 0.83494 0.09237 0.90633 0.0
O5 O 0.95167 0.08721 0.92436 0.0
Mg6 Mg 0.98595 0.98379 0.97326 0.0
O7 O 0.03769 0.89172 0.0194 0.0
Mg8 Mg 0.16786 0.93394 0.96633 0.0
Mg9 Mg 0.97326 0.76106 0.03126 0.0
C10 C 0.78781 0.87223 0.8739 0.0
O11 O 0.86758 0.93152 0.07552 0.0
O12 O 0.01202 0.29332 0.86251 0.0
O13 O 0.84756 0.77538 0.08614 0.0
O14 O 0.94121 0.23384 0.05797 0.0
O15 O 0.87473 0.19625 0.81092 0.0
O16 O 0.79637 0.15395 0.01207 0.0
O17 O 0.10959 0.01772 0.87702 0.0
O18 O 0.14938 0.17538 0.87373 0.0
C19 C 0.16016 0.09971 0.84851 0.0
C20 C 0.94701 0.27359 0.80923 0.0
O21 O 0.87083 0.87418 0.89182 0.0
O22 O 0.20384 0.85326 0.07147 0.0
O23 O 0.7654 0.94564 0.88042 0.0
O24 O 0.13049 0.80044 0.88385 0.0
O25 O 0.06617 0.74307 0.1184 0.0
O26 O 0.99175 0.68782 0.92064 0.0
O27 O 0.08367 0.10345 0.05586 0.0
O28 O 0.2088 0.0605 0.05098 0.0
C29 C 0.85107 0.21052 0.06298 0.0
C30 C 0.82525 0.84725 0.10575 0.0
C31 C 0.62994 0.63033 0.61212 0.0
C32 C 0.81057 0.4136 0.55466 0.0
C33 C 0.67876 0.36791 0.31251 0.0
Mg34 Mg 0.44678 0.6571 0.53509 0.0
Mg35 Mg 0.26631 0.47771 0.46695 0.0
O36 O 0.39639 0.53487 0.47276 0.0
Mg37 Mg 0.49404 0.47698 0.48717 0.0
O38 O 0.60381 0.43629 0.505 0.0
Mg39 Mg 0.7114 0.54386 0.45266 0.0
Mg40 Mg 0.60744 0.31595 0.4906 0.0
C41 C 0.33604 0.33913 0.35682 0.0
O42 O 0.40802 0.35318 0.57496 0.0
O43 O 0.35605 0.71674 0.45849 0.0
O44 O 0.47478 0.24204 0.55466 0.0
O45 O 0.32175 0.6037 0.63263 0.0
O46 O 0.24759 0.58916 0.40069 0.0
O47 O 0.20427 0.47428 0.58903 0.0
O48 O 0.59472 0.58845 0.39823 0.0
O49 O 0.55828 0.71349 0.43328 0.0
C50 C 0.60443 0.67506 0.38837 0.0
C51 C 0.28986 0.67876 0.40801 0.0
O52 O 0.42244 0.37194 0.3806 0.0
O53 O 0.81728 0.49077 0.51823 0.0
O54 O 0.27019 0.36426 0.38864 0.0
O55 O 0.71553 0.45399 0.33689 0.0
O56 O 0.73599 0.33832 0.55286 0.0
O57 O 0.62889 0.30242 0.36215 0.0
O58 O 0.5443 0.58478 0.59259 0.0
O59 O 0.70049 0.62486 0.56978 0.0
C60 C 0.23862 0.53983 0.64212 0.0
C61 C 0.41112 0.27008 0.58659 0.0
C62 C 0.17911 0.13662 0.22861 0.0
C63 C 0.20931 0.17456 0.14846 0.0
C64 C 0.34427 0.30264 0.20593 0.0
C65 C 0.30689 0.27197 0.28681 0.0
N66 N 0.18677 0.16171 0.37602 0.0
N67 N 0.31376 0.29733 0.05966 0.0
C68 C 0.224 0.18901 0.29821 0.0
C69 C 0.29041 0.25838 0.13676 0.0
N70 N 0.10948 0.04877 0.23812 0.0
N71 N 0.43086 0.37374 0.19495 0.0
H72 H 0.2743 0.26716 0.00839 0.0
H73 H 0.36634 0.36343 0.0475 0.0
H74 H 0.47287 0.40795 0.24341 0.0
H75 H 0.46566 0.39281 0.13769 0.0
H76 H 0.09151 0.01275 0.29413 0.0
H77 H 0.07347 0.00839 0.18895 0.0
H78 H 0.11974 0.11075 0.38845 0.0
H79 H 0.22122 0.19396 0.42889 0.0
C80 C 0.72349 0.19816 0.16785 0.0
C81 C 0.807 0.25614 0.12431 0.0
C82 C 0.78755 0.39866 0.18343 0.0
C83 C 0.70712 0.33856 0.23026 0.0
N84 N 0.57298 0.19125 0.22672 0.0
N85 N 0.90312 0.41265 0.07206 0.0
C86 C 0.66668 0.24133 0.20934 0.0
C87 C 0.8353 0.35704 0.12691 0.0
N88 N 0.69975 0.102 0.17215 0.0
N89 N 0.81643 0.49503 0.19064 0.0
H90 H 0.93876 0.38576 0.02862 0.0
H91 H 0.9197 0.48527 0.06478 0.0
H92 H 0.77144 0.52835 0.21318 0.0
H93 H 0.88325 0.54185 0.17122 0.0
H94 H 0.64311 0.05825 0.20897 0.0
H95 H 0.74237 0.06758 0.14629 0.0
H96 H 0.53854 0.12141 0.20743 0.0
H97 H 0.52798 0.2242 0.25048 0.0
C98 C 0.78783 0.86347 0.25462 0.0
C99 C 0.75533 0.83013 0.17506 0.0
C100 C 0.62073 0.69967 0.23567 0.0
C101 C 0.65693 0.72853 0.31521 0.0
N102 N 0.76245 0.84682 0.4032 0.0
N103 N 0.63013 0.73743 0.08943 0.0
C104 C 0.73617 0.81391 0.32556 0.0
C105 C 0.66768 0.75488 0.16582 0.0
N106 N 0.87121 0.93882 0.262 0.0
N107 N 0.54187 0.61935 0.22694 0.0
H108 H 0.66404 0.77903 0.0383 0.0
H109 H 0.56293 0.68859 0.07775 0.0
H110 H 0.50047 0.58117 0.27668 0.0
H111 H 0.51824 0.5885 0.17038 0.0
H112 H 0.90672 0.95842 0.31674 0.0
H113 H 0.90624 0.98183 0.21231 0.0
H114 H 0.81212 0.91384 0.41546 0.0
H115 H 0.73121 0.80872 0.45658 0.0
C116 C 0.15883 0.7877 0.27707 0.0
C117 C 0.2 0.77678 0.19897 0.0
C118 C 0.32537 0.74611 0.26793 0.0
C119 C 0.27344 0.7374 0.34359 0.0
N120 N 0.1465 0.7565 0.42436 0.0
N121 N 0.31916 0.73907 0.11937 0.0
C122 C 0.19216 0.76112 0.34952 0.0
C123 C 0.28357 0.75607 0.19401 0.0
N124 N 0.09002 0.82584 0.28201 0.0
N125 N 0.41431 0.74394 0.26701 0.0
H126 H 0.28857 0.74214 0.06362 0.0
H127 H 0.37403 0.71352 0.11319 0.0
H128 H 0.44631 0.73635 0.32069 0.0
H129 H 0.45948 0.76026 0.21486 0.0
H130 H 0.06275 0.8423 0.33736 0.0
H131 H 0.06568 0.84929 0.23066 0.0
H132 H 0.07969 0.76029 0.43228 0.0
H133 H 0.17593 0.7465 0.47883 0.0
C134 C 0.08394 0.66562 0.7301 0.0
C135 C 0.08915 0.65288 0.81561 0.0
C136 C 0.17674 0.54673 0.78758 0.0
C137 C 0.1728 0.56124 0.70209 0.0
N138 N 0.09695 0.60899 0.5921 0.0
N139 N 0.12189 0.56646 0.92685 0.0
C140 C 0.11785 0.61225 0.67344 0.0
C141 C 0.12899 0.58787 0.84469 0.0
N142 N 0.04932 0.73117 0.70283 0.0
N143 N 0.22851 0.49607 0.81382 0.0
H144 H 0.08945 0.59691 0.97037 0.0
H145 H 0.14136 0.51335 0.95126 0.0
H146 H 0.25967 0.46147 0.77288 0.0
H147 H 0.24351 0.49098 0.87519 0.0
H148 H 0.05502 0.7527 0.64149 0.0
H149 H 0.0189 0.76769 0.74245 0.0
H150 H 0.04715 0.63433 0.57012 0.0
H151 H 0.12159 0.57269 0.54767 0.0
C152 C 0.32504 0.17624 0.80035 0.0
C153 C 0.23342 0.11164 0.78373 0.0
C154 C 0.27152 0.12993 0.63602 0.0
C155 C 0.35229 0.21098 0.65348 0.0
N156 N 0.46196 0.30927 0.75153 0.0
N157 N 0.11819 0.02167 0.68642 0.0
C158 C 0.38158 0.23302 0.73554 0.0
C159 C 0.20682 0.08499 0.70168 0.0
N160 N 0.35668 0.18294 0.87859 0.0
N161 N 0.25744 0.09586 0.55742 0.0
H162 H 0.07037 0.98453 0.73312 0.0
H163 H 0.09082 0.00894 0.62774 0.0
H164 H 0.30526 0.12672 0.50865 0.0
H165 H 0.20375 0.03232 0.54217 0.0
H166 H 0.42548 0.22373 0.89451 0.0
H167 H 0.31579 0.13921 0.92589 0.0
H168 H 0.48073 0.33507 0.81062 0.0
H169 H 0.50787 0.35036 0.70533 0.0
C170 C 0.97057 0.31542 0.66045 0.0
C171 C 0.95318 0.34084 0.74197 0.0
C172 C 0.89119 0.45558 0.68816 0.0
C173 C 0.88564 0.41219 0.60974 0.0
N174 N 0.93246 0.31244 0.51593 0.0
N175 N 0.90493 0.44039 0.83527 0.0
C176 C 0.93123 0.34698 0.59388 0.0
C177 C 0.91824 0.41452 0.75629 0.0
N178 N 0.02272 0.25946 0.64786 0.0
N179 N 0.86952 0.53498 0.69747 0.0
H180 H 0.92807 0.41419 0.88578 0.0
H181 H 0.86854 0.48488 0.85092 0.0
H182 H 0.85121 0.56762 0.6484 0.0
H183 H 0.87977 0.57436 0.7516 0.0
H184 H 0.04346 0.24245 0.58986 0.0
H185 H 0.05209 0.23669 0.69661 0.0
H186 H 0.95563 0.25739 0.50086 0.0
H187 H 0.90785 0.33866 0.46614 0.0
C188 C 0.73212 0.70145 0.82186 0.0
C189 C 0.71861 0.78872 0.83134 0.0
C190 C 0.62672 0.75949 0.70822 0.0
C191 C 0.64902 0.67824 0.69231 0.0
N192 N 0.68533 0.55011 0.74997 0.0
N193 N 0.59624 0.85402 0.81753 0.0
C194 C 0.69008 0.64188 0.75436 0.0
C195 C 0.64714 0.80301 0.78573 0.0
N196 N 0.78251 0.67507 0.87778 0.0
N197 N 0.59124 0.79854 0.64884 0.0
H198 H 0.60049 0.87546 0.87908 0.0
H199 H 0.54031 0.86145 0.78681 0.0
H200 H 0.58236 0.77267 0.58885 0.0
H201 H 0.58082 0.86245 0.65746 0.0
H202 H 0.80293 0.61693 0.87009 0.0
H203 H 0.80188 0.71115 0.93326 0.0
H204 H 0.70483 0.51625 0.79746 0.0
H205 H 0.65406 0.50521 0.70135 0.0
loop_
_geom_bond_atom_site_label_1
_geom_bond_atom_site_label_2
_geom_bond_distance
_geom_bond_site_symmetry_2
_ccdc_geom_bond_type
C0 O27 1.312 . S
C0 O28 1.208 . S
C1 O22 1.331 . S
C1 O25 1.244 . S
C2 O24 1.264 . S
C2 O26 1.273 . S
Mg3 O5 1.937 1_455 S
Mg3 O12 2.085 1_455 S
Mg3 O14 2.020 1_456 S
Mg3 O18 2.034 . S
Mg3 O27 2.288 1_556 S
Mg4 O5 1.963 . S
Mg4 O15 1.942 . S
Mg4 O16 1.955 1_556 S
Mg4 O23 1.986 1_545 S
O5 Mg3 1.937 1_655 S
O5 Mg4 1.963 . S
O5 Mg6 1.915 1_546 S
Mg6 O5 1.915 1_564 S
Mg6 O7 1.915 1_655 S
Mg6 O11 2.013 . S
Mg6 O17 2.114 1_664 S
Mg6 O21 2.013 1_554 S
Mg6 O27 2.114 1_665 S
O7 Mg6 1.915 1_455 S
O7 Mg8 1.937 1_565 S
O7 Mg9 1.963 . S
Mg8 O7 1.937 1_545 S
Mg8 O17 2.286 1_554 S
Mg8 O22 2.087 1_545 S
Mg8 O24 2.018 1_544 S
Mg8 O28 2.036 . S
Mg9 O7 1.963 . S
Mg9 O13 1.986 1_455 S
Mg9 O25 1.942 . S
Mg9 O26 1.955 1_554 S
C10 O21 1.191 . S
C10 O23 1.307 . S
O11 Mg6 2.013 . S
O11 C30 1.191 . S
O12 Mg3 2.085 1_655 S
O12 C20 1.331 . S
O13 Mg9 1.986 1_655 S
O13 C30 1.307 . S
O14 Mg3 2.020 1_654 S
O14 C29 1.264 . S
O15 Mg4 1.942 . S
O15 C20 1.244 . S
O16 Mg4 1.955 1_554 S
O16 C29 1.273 . S
O17 Mg6 2.114 1_446 S
O17 Mg8 2.286 1_556 S
O17 C19 1.312 . S
O18 Mg3 2.034 . S
O18 C19 1.208 . S
C19 O17 1.312 . S
C19 O18 1.208 . S
C20 O12 1.331 . S
C20 O15 1.244 . S
O21 Mg6 2.013 1_556 S
O21 C10 1.191 . S
O22 C1 1.331 . S
O22 Mg8 2.087 1_565 S
O23 Mg4 1.986 1_565 S
O23 C10 1.307 . S
O24 C2 1.264 . S
O24 Mg8 2.018 1_566 S
O25 C1 1.244 . S
O25 Mg9 1.942 . S
O26 C2 1.273 . S
O26 Mg9 1.955 1_556 S
O27 C0 1.312 . S
O27 Mg3 2.288 1_554 S
O27 Mg6 2.114 1_445 S
O28 C0 1.208 . S
O28 Mg8 2.036 . S
C29 O14 1.264 . S
C29 O16 1.273 . S
C30 O11 1.191 . S
C30 O13 1.307 . S
C31 O58 1.312 . S
C31 O59 1.208 . S
C32 O53 1.331 . S
C32 O56 1.244 . S
C33 O55 1.264 . S
C33 O57 1.273 . S
Mg34 O36 1.936 . S
Mg34 O43 2.081 . S
Mg34 O45 2.023 . S
Mg34 O49 2.031 . S
Mg34 O58 2.291 . S
Mg35 O36 1.963 . S
Mg35 O46 1.942 . S
Mg35 O47 1.955 . S
Mg35 O54 1.986 . S
O36 Mg34 1.936 . S
O36 Mg35 1.963 . S
O36 Mg37 1.915 . S
Mg37 O36 1.915 . S
Mg37 O38 1.915 . S
Mg37 O42 2.013 . S
Mg37 O48 2.114 . S
Mg37 O52 2.013 . S
Mg37 O58 2.114 . S
O38 Mg37 1.915 . S
O38 Mg39 1.936 . S
O38 Mg40 1.963 . S
Mg39 O38 1.936 . S
Mg39 O48 2.291 . S
Mg39 O53 2.081 . S
Mg39 O55 2.023 . S
Mg39 O59 2.031 . S
Mg40 O38 1.963 . S
Mg40 O44 1.986 . S
Mg40 O56 1.942 . S
Mg40 O57 1.955 . S
C41 O52 1.191 . S
C41 O54 1.307 . S
O42 Mg37 2.013 . S
O42 C61 1.191 . S
O43 Mg34 2.081 . S
O43 C51 1.331 . S
O44 Mg40 1.986 . S
O44 C61 1.307 . S
O45 Mg34 2.023 . S
O45 C60 1.264 . S
O46 Mg35 1.942 . S
O46 C51 1.244 . S
O47 Mg35 1.955 . S
O47 C60 1.273 . S
O48 Mg37 2.114 . S
O48 Mg39 2.291 . S
O48 C50 1.312 . S
O49 Mg34 2.031 . S
O49 C50 1.208 . S
C50 O48 1.312 . S
C50 O49 1.208 . S
C51 O43 1.331 . S
C51 O46 1.244 . S
O52 Mg37 2.013 . S
O52 C41 1.191 . S
O53 C32 1.331 . S
O53 Mg39 2.081 . S
O54 Mg35 1.986 . S
O54 C41 1.307 . S
O55 C33 1.264 . S
O55 Mg39 2.023 . S
O56 C32 1.244 . S
O56 Mg40 1.942 . S
O57 C33 1.273 . S
O57 Mg40 1.955 . S
O58 C31 1.312 . S
O58 Mg34 2.291 . S
O58 Mg37 2.114 . S
O59 C31 1.208 . S
O59 Mg39 2.031 . S
C60 O45 1.264 . S
C60 O47 1.273 . S
C61 O42 1.191 . S
C61 O44 1.307 . S
C62 C63 1.363 . S
C62 C68 1.379 . S
C62 N70 1.356 . S
C63 C62 1.363 . S
C63 C69 1.363 . S
C64 C65 1.363 . S
C64 C69 1.379 . S
C64 N71 1.356 . S
C65 C64 1.363 . S
C65 C68 1.363 . S
N66 C68 1.356 . S
N66 H78 0.984 . S
N66 H79 0.985 . S
N67 C69 1.356 . S
N67 H72 0.984 . S
N67 H73 0.985 . S
C68 C62 1.379 . S
C68 C65 1.363 . S
C68 N66 1.356 . S
C69 C63 1.363 . S
C69 C64 1.379 . S
C69 N67 1.356 . S
N70 C62 1.356 . S
N70 H76 0.984 . S
N70 H77 0.984 . S
N71 C64 1.356 . S
N71 H74 0.984 . S
N71 H75 0.985 . S
H72 N67 0.984 . S
H73 N67 0.985 . S
H74 N71 0.984 . S
H75 N71 0.985 . S
H76 N70 0.984 . S
H77 N70 0.984 . S
H78 N66 0.984 . S
H79 N66 0.985 . S
C80 C81 1.363 . S
C80 C86 1.379 . S
C80 N88 1.356 . S
C81 C80 1.363 . S
C81 C87 1.363 . S
C82 C83 1.363 . S
C82 C87 1.379 . S
C82 N89 1.356 . S
C83 C82 1.363 . S
C83 C86 1.363 . S
N84 C86 1.356 . S
N84 H96 0.984 . S
N84 H97 0.985 . S
N85 C87 1.356 . S
N85 H90 0.984 . S
N85 H91 0.985 . S
C86 C80 1.379 . S
C86 C83 1.363 . S
C86 N84 1.356 . S
C87 C81 1.363 . S
C87 C82 1.379 . S
C87 N85 1.356 . S
N88 C80 1.356 . S
N88 H94 0.984 . S
N88 H95 0.984 . S
N89 C82 1.356 . S
N89 H92 0.984 . S
N89 H93 0.985 . S
H90 N85 0.984 . S
H91 N85 0.985 . S
H92 N89 0.984 . S
H93 N89 0.985 . S
H94 N88 0.984 . S
H95 N88 0.984 . S
H96 N84 0.984 . S
H97 N84 0.985 . S
C98 C99 1.363 . S
C98 C104 1.379 . S
C98 N106 1.356 . S
C99 C98 1.363 . S
C99 C105 1.363 . S
C100 C101 1.363 . S
C100 C105 1.379 . S
C100 N107 1.356 . S
C101 C100 1.363 . S
C101 C104 1.363 . S
N102 C104 1.356 . S
N102 H114 0.984 . S
N102 H115 0.985 . S
N103 C105 1.356 . S
N103 H108 0.984 . S
N103 H109 0.985 . S
C104 C98 1.379 . S
C104 C101 1.363 . S
C104 N102 1.356 . S
C105 C99 1.363 . S
C105 C100 1.379 . S
C105 N103 1.356 . S
N106 C98 1.356 . S
N106 H112 0.984 . S
N106 H113 0.984 . S
N107 C100 1.356 . S
N107 H110 0.984 . S
N107 H111 0.985 . S
H108 N103 0.984 . S
H109 N103 0.985 . S
H110 N107 0.984 . S
H111 N107 0.985 . S
H112 N106 0.984 . S
H113 N106 0.984 . S
H114 N102 0.984 . S
H115 N102 0.985 . S
C116 C117 1.363 . S
C116 C122 1.379 . S
C116 N124 1.356 . S
C117 C116 1.363 . S
C117 C123 1.363 . S
C118 C119 1.363 . S
C118 C123 1.379 . S
C118 N125 1.356 . S
C119 C118 1.363 . S
C119 C122 1.363 . S
N120 C122 1.356 . S
N120 H132 0.984 . S
N120 H133 0.985 . S
N121 C123 1.356 . S
N121 H126 0.984 . S
N121 H127 0.985 . S
C122 C116 1.379 . S
C122 C119 1.363 . S
C122 N120 1.356 . S
C123 C117 1.363 . S
C123 C118 1.379 . S
C123 N121 1.356 . S
N124 C116 1.356 . S
N124 H130 0.984 . S
N124 H131 0.984 . S
N125 C118 1.356 . S
N125 H128 0.984 . S
N125 H129 0.985 . S
H126 N121 0.984 . S
H127 N121 0.985 . S
H128 N125 0.984 . S
H129 N125 0.985 . S
H130 N124 0.984 . S
H131 N124 0.984 . S
H132 N120 0.984 . S
H133 N120 0.985 . S
C134 C135 1.363 . S
C134 C140 1.379 . S
C134 N142 1.356 . S
C135 C134 1.363 . S
C135 C141 1.363 . S
C136 C137 1.363 . S
C136 C141 1.379 . S
C136 N143 1.356 . S
C137 C136 1.363 . S
C137 C140 1.363 . S
N138 C140 1.356 . S
N138 H150 0.984 . S
N138 H151 0.985 . S
N139 C141 1.356 . S
N139 H144 0.984 . S
N139 H145 0.985 . S
C140 C134 1.379 . S
C140 C137 1.363 . S
C140 N138 1.356 . S
C141 C135 1.363 . S
C141 C136 1.379 . S
C141 N139 1.356 . S
N142 C134 1.356 . S
N142 H148 0.984 . S
N142 H149 0.984 . S
N143 C136 1.356 . S
N143 H146 0.984 . S
N143 H147 0.985 . S
H144 N139 0.984 . S
H145 N139 0.985 . S
H146 N143 0.984 . S
H147 N143 0.985 . S
H148 N142 0.984 . S
H149 N142 0.984 . S
H150 N138 0.984 . S
H151 N138 0.985 . S
C152 C153 1.363 . S
C152 C158 1.379 . S
C152 N160 1.356 . S
C153 C152 1.363 . S
C153 C159 1.363 . S
C154 C155 1.363 . S
C154 C159 1.379 . S
C154 N161 1.356 . S
C155 C154 1.363 . S
C155 C158 1.363 . S
N156 C158 1.356 . S
N156 H168 0.984 . S
N156 H169 0.985 . S
N157 C159 1.356 . S
N157 H162 0.984 . S
N157 H163 0.985 . S
C158 C152 1.379 . S
C158 C155 1.363 . S
C158 N156 1.356 . S
C159 C153 1.363 . S
C159 C154 1.379 . S
C159 N157 1.356 . S
N160 C152 1.356 . S
N160 H166 0.984 . S
N160 H167 0.984 . S
N161 C154 1.356 . S
N161 H164 0.984 . S
N161 H165 0.985 . S
H162 N157 0.984 . S
H163 N157 0.985 . S
H164 N161 0.984 . S
H165 N161 0.985 . S
H166 N160 0.984 . S
H167 N160 0.984 . S
H168 N156 0.984 . S
H169 N156 0.985 . S
C170 C171 1.363 . S
C170 C176 1.379 . S
C170 N178 1.356 . S
C171 C170 1.363 . S
C171 C177 1.363 . S
C172 C173 1.363 . S
C172 C177 1.379 . S
C172 N179 1.356 . S
C173 C172 1.363 . S
C173 C176 1.363 . S
N174 C176 1.356 . S
N174 H186 0.984 . S
N174 H187 0.985 . S
N175 C177 1.356 . S
N175 H180 0.984 . S
N175 H181 0.985 . S
C176 C170 1.379 . S
C176 C173 1.363 . S
C176 N174 1.356 . S
C177 C171 1.363 . S
C177 C172 1.379 . S
C177 N175 1.356 . S
N178 C170 1.356 . S
N178 H184 0.984 . S
N178 H185 0.984 . S
N179 C172 1.356 . S
N179 H182 0.984 . S
N179 H183 0.985 . S
H180 N175 0.984 . S
H181 N175 0.985 . S
H182 N179 0.984 . S
H183 N179 0.985 . S
H184 N178 0.984 . S
H185 N178 0.984 . S
H186 N174 0.984 . S
H187 N174 0.985 . S
C188 C189 1.363 . S
C188 C194 1.379 . S
C188 N196 1.356 . S
C189 C188 1.363 . S
C189 C195 1.363 . S
C190 C191 1.363 . S
C190 C195 1.379 . S
C190 N197 1.356 . S
C191 C190 1.363 . S
C191 C194 1.363 . S
N192 C194 1.356 . S
N192 H204 0.984 . S
N192 H205 0.985 . S
N193 C195 1.356 . S
N193 H198 0.984 . S
N193 H199 0.985 . S
C194 C188 1.379 . S
C194 C191 1.363 . S
C194 N192 1.356 . S
C195 C189 1.363 . S
C195 C190 1.379 . S
C195 N193 1.356 . S
N196 C188 1.356 . S
N196 H202 0.984 . S
N196 H203 0.984 . S
N197 C190 1.356 . S
N197 H200 0.984 . S
N197 H201 0.985 . S
H198 N193 0.984 . S
H199 N193 0.985 . S
H200 N197 0.984 . S
H201 N197 0.985 . S
H202 N196 0.984 . S
H203 N196 0.984 . S
H204 N192 0.984 . S
H205 N192 0.985 . S
C63 C0 1.341 . S
C65 C41 1.359 . S
C81 C29 1.610 . S
C83 C33 1.609 . S
C99 C30 1.361 . S
C101 C50 1.341 . S
C117 C1 1.481 . S
C119 C51 1.480 . S
C135 C2 1.610 . S
C137 C60 1.611 . S
C155 C61 1.361 . S
C153 C19 1.341 . S
C171 C20 1.481 . S
C173 C32 1.482 . S
C191 C31 1.341 . S
C189 C10 1.364 . S
