# Generated by pormake.
# Topology tsx, (6,3)-cn, num edge types: 1
# Building blocks:
#     Node 0, Type 0, BuildingBlock: VOLQOD_clean_sbu_1, # of connection points: 6
#     Node 1, Type 0, BuildingBlock: VOLQOD_clean_sbu_1, # of connection points: 6
#     Node 2, Type 1, BuildingBlock: OLANEW_clean_sbu_2, # of connection points: 3
#     Node 3, Type 1, BuildingBlock: OLANEW_clean_sbu_2, # of connection points: 3
#     Node 4, Type 1, BuildingBlock: OLANEW_clean_sbu_2, # of connection points: 3
#     Node 5, Type 1, BuildingBlock: OLANEW_clean_sbu_2, # of connection points: 3
#     Edge 6, Type (0, 1), BuildingBlock: OJICUG_clean_linker_0, # of connection points: 2
#     Edge 7, Type (0, 1), BuildingBlock: OJICUG_clean_linker_0, # of connection points: 2
#     Edge 8, Type (0, 1), BuildingBlock: OJICUG_clean_linker_0, # of connection points: 2
#     Edge 9, Type (0, 1), BuildingBlock: OJICUG_clean_linker_0, # of connection points: 2
#     Edge 10, Type (0, 1), BuildingBlock: OJICUG_clean_linker_0, # of connection points: 2
#     Edge 11, Type (0, 1), BuildingBlock: OJICUG_clean_linker_0, # of connection points: 2
#     Edge 12, Type (0, 1), BuildingBlock: OJICUG_clean_linker_0, # of connection points: 2
#     Edge 13, Type (0, 1), BuildingBlock: OJICUG_clean_linker_0, # of connection points: 2
#     Edge 14, Type (0, 1), BuildingBlock: OJICUG_clean_linker_0, # of connection points: 2
#     Edge 15, Type (0, 1), BuildingBlock: OJICUG_clean_linker_0, # of connection points: 2
#     Edge 16, Type (0, 1), BuildingBlock: OJICUG_clean_linker_0, # of connection points: 2
#     Edge 17, Type (0, 1), BuildingBlock: OJICUG_clean_linker_0, # of connection points: 2
# Relax obj value: 0.029
# Max RMSD: 0.071
# Mean RMSD: 0.068
data_MOF--net-tsx--node1-VOLQOD_clean_sbu_1--node2-OLANEW_clean_sbu_2--edge1-OJICUG_clean_linker_0
_symmetry_space_group_name_H-M    P1
_symmetry_Int_Tables_number       1
_symmetry_cell_setting            triclinic
loop_
_symmetry_equiv_pos_as_xyz
'x, y, z'
_cell_length_a     17.133756
_cell_length_b     17.813242
_cell_length_c     28.762362
_cell_angle_alpha  95.279581
_cell_angle_beta   90.095191
_cell_angle_gamma 89.618111
loop_
_atom_site_label
_atom_site_type_symbol
_atom_site_fract_x
_atom_site_fract_y
_atom_site_fract_z
_atom_type_partial_charge
O0 O 0.07847 -0.00039 0.11112 0.0
Zn1 Zn 0.10345 0.99662 0.04306 0.0
O2 O 0.01078 0.01005 0.00555 0.0
Zn3 Zn 0.99768 0.92015 0.96086 0.0
Zn4 Zn 0.92058 0.02302 0.04684 0.0
Zn5 Zn 0.0226 0.10159 0.97305 0.0
O6 O 1.00106 0.95039 0.89442 0.0
O7 O 0.02453 0.07361 0.90389 0.0
O8 O 0.15882 0.89944 0.02404 0.0
O9 O 0.08684 0.8462 0.96612 0.0
O10 O 0.89661 0.86478 0.97315 0.0
O11 O 0.84771 0.9374 0.03321 0.0
O12 O 0.8582 0.11605 0.03524 0.0
O13 O 0.17994 0.07816 0.03581 0.0
O14 O 0.93042 0.17226 0.98478 0.0
O15 O 0.12343 0.15675 0.99039 0.0
C16 C 0.01614 0.01103 0.13472 0.0
C17 C 0.01418 0.01297 0.87759 0.0
C18 C 0.84368 0.87966 0.00387 0.0
C19 C 0.14622 0.84559 0.99283 0.0
C20 C 0.86904 0.16956 0.00951 0.0
C21 C 0.18112 0.13803 0.01496 0.0
O22 O 0.95098 0.02271 0.11504 0.0
O23 O 0.57817 0.49976 0.61119 0.0
Zn24 Zn 0.60317 0.49689 0.54315 0.0
O25 O 0.5105 0.51034 0.50564 0.0
Zn26 Zn 0.4974 0.42043 0.46096 0.0
Zn27 Zn 0.42029 0.52332 0.54693 0.0
Zn28 Zn 0.52234 0.60187 0.47313 0.0
O29 O 0.50077 0.45068 0.39452 0.0
O30 O 0.5243 0.57389 0.40397 0.0
O31 O 0.65861 0.39977 0.52408 0.0
O32 O 0.58659 0.3465 0.46619 0.0
O33 O 0.39634 0.36506 0.47325 0.0
O34 O 0.3474 0.43772 0.53329 0.0
O35 O 0.35795 0.6164 0.53536 0.0
O36 O 0.67962 0.57848 0.53596 0.0
O37 O 0.43018 0.67254 0.48487 0.0
O38 O 0.62316 0.65705 0.4905 0.0
C39 C 0.51585 0.51117 0.6348 0.0
C40 C 0.51393 0.51325 0.37768 0.0
C41 C 0.34339 0.37996 0.50396 0.0
C42 C 0.646 0.34592 0.49287 0.0
C43 C 0.36882 0.66989 0.50961 0.0
C44 C 0.68082 0.63835 0.51511 0.0
O45 O 0.4507 0.52293 0.61514 0.0
O46 O 0.98536 0.96324 0.35614 0.0
Cd47 Cd 0.99075 0.95697 0.44103 0.0
O48 O 0.07795 0.04839 0.35792 0.0
Cd49 Cd 0.05505 0.0773 0.43179 0.0
O50 O 0.95845 0.13739 0.4681 0.0
C51 C 0.89191 0.12848 0.44881 0.0
O52 O 0.88554 0.08094 0.4113 0.0
C53 C 0.0323 0.00307 0.33472 0.0
C54 C 0.11524 0.86844 0.46823 0.0
O55 O 0.04753 0.84016 0.45989 0.0
O56 O 0.1247 0.93853 0.46321 0.0
O57 O 0.99052 0.07616 0.65912 0.0
Cd58 Cd 0.97948 0.08613 0.57472 0.0
O59 O 0.06164 0.97261 0.65155 0.0
Cd60 Cd 0.04198 0.96126 0.57656 0.0
O61 O 0.95056 0.89698 0.53926 0.0
C62 C 0.94824 0.83012 0.55108 0.0
O63 O 0.002 0.80862 0.57979 0.0
C64 C 0.02841 0.0248 0.67754 0.0
C65 C 0.09401 0.1794 0.54285 0.0
O66 O 0.02957 0.20609 0.56009 0.0
O67 O 0.10468 0.10785 0.54043 0.0
O68 O 0.48524 0.46286 0.85616 0.0
Cd69 Cd 0.4907 0.4564 0.94103 0.0
O70 O 0.57787 0.54797 0.85798 0.0
Cd71 Cd 0.55508 0.57672 0.93188 0.0
O72 O 0.45851 0.63683 0.9682 0.0
C73 C 0.39197 0.62794 0.94891 0.0
O74 O 0.38559 0.5804 0.9114 0.0
C75 C 0.53217 0.50272 0.83476 0.0
C76 C 0.6153 0.36793 0.96814 0.0
O77 O 0.54761 0.33961 0.95979 0.0
O78 O 0.62469 0.43805 0.96317 0.0
O79 O 0.49059 0.57623 0.15915 0.0
Cd80 Cd 0.47966 0.58604 0.07473 0.0
O81 O 0.56153 0.47256 0.15166 0.0
Cd82 Cd 0.54198 0.4611 0.07667 0.0
O83 O 0.45071 0.39675 0.03926 0.0
C84 C 0.44849 0.32982 0.05097 0.0
O85 O 0.50229 0.30827 0.07964 0.0
C86 C 0.52837 0.52484 0.17761 0.0
C87 C 0.59425 0.67921 0.04283 0.0
O88 O 0.5298 0.70594 0.06002 0.0
O89 O 0.60491 0.60766 0.04047 0.0
C90 C 0.25246 0.25862 0.00462 0.0
C91 C 0.25123 0.18618 0.02033 0.0
H92 H 0.31638 0.36127 0.00173 0.0
C93 C 0.3177 0.15995 0.04276 0.0
H94 H 0.20236 0.28029 0.98699 0.0
C95 C 0.38261 0.20585 0.05094 0.0
C96 C 0.38283 0.27931 0.03706 0.0
H97 H 0.31937 0.10411 0.05481 0.0
H98 H 0.43198 0.18412 0.06923 0.0
C99 C 0.31777 0.30488 0.01296 0.0
C100 C 0.27404 0.78628 0.01199 0.0
C101 C 0.20493 0.78419 0.98538 0.0
H102 H 0.38709 0.73839 0.02159 0.0
C103 C 0.19516 0.72573 0.94962 0.0
H104 H 0.28341 0.83021 0.04001 0.0
C105 C 0.2547 0.67288 0.9392 0.0
C106 C 0.32537 0.67743 0.96422 0.0
H107 H 0.14253 0.72208 0.92864 0.0
H108 H 0.24623 0.63005 0.91042 0.0
C109 C 0.33361 0.73353 0.00148 0.0
C110 C 0.78356 0.75062 0.9947 0.0
C111 C 0.777 0.82836 0.00782 0.0
H112 H 0.73084 0.6418 0.99596 0.0
C113 C 0.70771 0.85671 0.02905 0.0
H114 H 0.8364 0.72723 0.97841 0.0
C115 C 0.64751 0.80833 0.03875 0.0
C116 C 0.65542 0.73018 0.02801 0.0
H117 H 0.70061 0.91647 0.03919 0.0
H118 H 0.59578 0.83217 0.05613 0.0
C119 C 0.72339 0.70179 0.00503 0.0
C120 C 0.7275 0.20526 0.01269 0.0
C121 C 0.80522 0.22461 0.00395 0.0
H122 H 0.60662 0.23478 0.00744 0.0
C123 C 0.82014 0.29374 0.98579 0.0
H124 H 0.71391 0.1522 0.02635 0.0
C125 C 0.75853 0.34165 0.97561 0.0
C126 C 0.68077 0.32051 0.98236 0.0
H127 H 0.87937 0.31021 0.97868 0.0
H128 H 0.7717 0.39398 0.96095 0.0
C129 C 0.66594 0.2523 0.00154 0.0
C130 C 0.75223 0.75889 0.5047 0.0
C131 C 0.75092 0.68651 0.52051 0.0
H132 H 0.81623 0.86147 0.50172 0.0
C133 C 0.8173 0.66035 0.54305 0.0
H134 H 0.70219 0.7805 0.48699 0.0
C135 C 0.88222 0.70624 0.55123 0.0
C136 C 0.88253 0.77962 0.53723 0.0
H137 H 0.81892 0.60456 0.55518 0.0
H138 H 0.93153 0.68456 0.56959 0.0
C139 C 0.81755 0.80514 0.51304 0.0
C140 C 0.69502 0.22613 0.4496 0.0
C141 C 0.70476 0.28457 0.48538 0.0
H142 H 0.74614 0.13052 0.41036 0.0
C143 C 0.7739 0.28669 0.51196 0.0
H144 H 0.64237 0.22245 0.42864 0.0
C145 C 0.83351 0.234 0.50142 0.0
C146 C 0.82528 0.17792 0.46414 0.0
H147 H 0.78326 0.33061 0.54 0.0
H148 H 0.887 0.23889 0.52152 0.0
C149 C 0.7546 0.17334 0.43915 0.0
C150 C 0.28327 0.25092 0.49473 0.0
C151 C 0.27672 0.32865 0.5079 0.0
H152 H 0.23056 0.14209 0.49592 0.0
C153 C 0.20745 0.35695 0.52917 0.0
H154 H 0.33609 0.22756 0.4784 0.0
C155 C 0.14726 0.30855 0.53886 0.0
C156 C 0.15517 0.23041 0.52806 0.0
H157 H 0.20034 0.4167 0.53936 0.0
H158 H 0.09554 0.33235 0.55628 0.0
C159 C 0.22312 0.20207 0.50503 0.0
C160 C 0.32002 0.7941 0.4859 0.0
C161 C 0.30504 0.72499 0.50407 0.0
H162 H 0.27167 0.89437 0.46104 0.0
C163 C 0.2273 0.70571 0.51282 0.0
H164 H 0.37926 0.81053 0.47878 0.0
C165 C 0.16578 0.7528 0.50166 0.0
C166 C 0.18067 0.82098 0.48247 0.0
H167 H 0.21367 0.65267 0.52648 0.0
H168 H 0.10645 0.73533 0.50757 0.0
C169 C 0.25845 0.84206 0.47572 0.0
C170 C 0.9549 0.98706 0.21091 0.0
C171 C 0.01998 0.00883 0.18589 0.0
H172 H 0.90858 0.96609 0.27762 0.0
C173 C 0.0899 0.02644 0.20999 0.0
H174 H 0.90051 0.97254 0.19315 0.0
C175 C 0.09422 0.02381 0.25833 0.0
C176 C 0.02931 0.00164 0.28333 0.0
H177 H 0.14103 0.04339 0.19157 0.0
H178 H 0.14842 0.03898 0.27613 0.0
C179 C 0.95981 0.98262 0.25913 0.0
C180 C 0.03657 0.95082 0.79684 0.0
C181 C 0.0187 0.01584 0.82641 0.0
H182 H 0.05552 0.90313 0.72664 0.0
C183 C 0.00661 0.08439 0.80671 0.0
H184 H 0.0468 0.89735 0.81102 0.0
C185 C 0.01073 0.08757 0.7584 0.0
C186 C 0.02864 0.0226 0.72883 0.0
H187 H 0.99272 0.13551 0.82858 0.0
H188 H 0.99981 0.14092 0.74421 0.0
C189 C 0.04225 0.95433 0.74858 0.0
C190 C 0.45464 0.48708 0.71098 0.0
C191 C 0.51972 0.50889 0.68596 0.0
H192 H 0.40838 0.46597 0.77767 0.0
C193 C 0.58967 0.5264 0.71006 0.0
H194 H 0.40023 0.47264 0.69323 0.0
C195 C 0.59403 0.52364 0.75838 0.0
C196 C 0.52913 0.50143 0.78338 0.0
H197 H 0.64079 0.54337 0.69164 0.0
H198 H 0.64825 0.53874 0.77617 0.0
C199 C 0.45959 0.48252 0.75918 0.0
C200 C 0.50649 0.5846 0.30676 0.0
C201 C 0.51849 0.51607 0.32649 0.0
H202 H 0.49981 0.64107 0.24423 0.0
C203 C 0.53632 0.45101 0.29696 0.0
H204 H 0.49263 0.63575 0.32861 0.0
C205 C 0.54205 0.45446 0.24869 0.0
C206 C 0.52854 0.52271 0.22891 0.0
H207 H 0.54648 0.39754 0.31116 0.0
H208 H 0.55529 0.40322 0.22678 0.0
C209 C 0.51067 0.58772 0.25845 0.0
loop_
_geom_bond_atom_site_label_1
_geom_bond_atom_site_label_2
_geom_bond_distance
_geom_bond_site_symmetry_2
_ccdc_geom_bond_type
O0 Zn1 1.953 . S
O0 C16 1.225 1_565 S
Zn1 O0 1.953 . S
Zn1 O2 1.949 1_565 S
Zn1 O8 1.919 . S
Zn1 O13 1.924 1_565 S
O2 Zn1 1.949 1_545 S
O2 Zn3 1.923 1_444 S
O2 Zn4 1.950 1_455 S
O2 Zn5 1.945 1_554 S
Zn3 O2 1.923 1_666 S
Zn3 O6 1.933 . S
Zn3 O9 1.941 1_655 S
Zn3 O10 1.965 . S
Zn4 O2 1.950 1_655 S
Zn4 O11 1.938 1_545 S
Zn4 O12 1.906 . S
Zn4 O22 1.953 . S
Zn5 O2 1.945 1_556 S
Zn5 O7 1.932 . S
Zn5 O14 1.977 1_455 S
Zn5 O15 1.910 . S
O6 Zn3 1.933 . S
O6 C17 1.230 1_655 S
O7 Zn5 1.932 . S
O7 C17 1.303 1_545 S
O8 Zn1 1.919 . S
O8 C19 1.253 1_554 S
O9 Zn3 1.941 1_455 S
O9 C19 1.283 . S
O10 Zn3 1.965 . S
O10 C18 1.303 1_556 S
O11 Zn4 1.938 1_565 S
O11 C18 1.247 . S
O12 Zn4 1.906 . S
O12 C20 1.304 1_554 S
O13 Zn1 1.924 1_545 S
O13 C21 1.311 . S
O14 Zn5 1.977 1_655 S
O14 C20 1.272 . S
O15 Zn5 1.910 . S
O15 C21 1.231 1_556 S
C16 O0 1.225 1_545 S
C16 O22 1.298 1_455 S
C17 O6 1.230 1_455 S
C17 O7 1.303 1_565 S
C18 O10 1.303 1_554 S
C18 O11 1.247 . S
C19 O8 1.253 1_556 S
C19 O9 1.283 . S
C20 O12 1.304 1_556 S
C20 O14 1.272 . S
C21 O13 1.311 . S
C21 O15 1.231 1_554 S
O22 Zn4 1.953 . S
O22 C16 1.298 1_655 S
O23 Zn24 1.953 . S
O23 C39 1.225 . S
Zn24 O23 1.953 . S
Zn24 O25 1.949 . S
Zn24 O31 1.919 . S
Zn24 O36 1.924 . S
O25 Zn24 1.949 . S
O25 Zn26 1.923 . S
O25 Zn27 1.950 . S
O25 Zn28 1.945 . S
Zn26 O25 1.923 . S
Zn26 O29 1.933 . S
Zn26 O32 1.941 . S
Zn26 O33 1.965 . S
Zn27 O25 1.950 . S
Zn27 O34 1.938 . S
Zn27 O35 1.906 . S
Zn27 O45 1.953 . S
Zn28 O25 1.945 . S
Zn28 O30 1.932 . S
Zn28 O37 1.977 . S
Zn28 O38 1.910 . S
O29 Zn26 1.933 . S
O29 C40 1.226 . S
O30 Zn28 1.932 . S
O30 C40 1.307 . S
O31 Zn24 1.919 . S
O31 C42 1.253 . S
O32 Zn26 1.941 . S
O32 C42 1.283 . S
O33 Zn26 1.965 . S
O33 C41 1.303 . S
O34 Zn27 1.938 . S
O34 C41 1.247 . S
O35 Zn27 1.906 . S
O35 C43 1.304 . S
O36 Zn24 1.924 . S
O36 C44 1.311 . S
O37 Zn28 1.977 . S
O37 C43 1.272 . S
O38 Zn28 1.910 . S
O38 C44 1.231 . S
C39 O23 1.225 . S
C39 O45 1.298 . S
C40 O29 1.226 . S
C40 O30 1.307 . S
C41 O33 1.303 . S
C41 O34 1.247 . S
C42 O31 1.253 . S
C42 O32 1.283 . S
C43 O35 1.304 . S
C43 O37 1.272 . S
C44 O36 1.311 . S
C44 O38 1.231 . S
O45 Zn27 1.953 . S
O45 C39 1.298 . S
O46 Cd47 2.300 . S
O46 C53 1.275 1_565 S
Cd47 O46 2.300 . S
Cd47 O55 2.381 . S
Cd47 O56 2.378 . S
O48 Cd49 2.385 . S
O48 C53 1.255 . S
Cd49 O48 2.385 . S
Cd49 O50 2.317 1_455 S
O50 Cd49 2.317 1_655 S
O50 C51 1.232 . S
C51 O50 1.232 . S
C51 O52 1.218 . S
O52 C51 1.218 . S
C53 O46 1.275 1_545 S
C53 O48 1.255 . S
C54 O55 1.258 . S
C54 O56 1.256 . S
O55 Cd47 2.381 . S
O55 C54 1.258 . S
O56 Cd47 2.378 . S
O56 C54 1.256 . S
O57 Cd58 2.300 . S
O57 C64 1.275 1_545 S
Cd58 O57 2.300 . S
Cd58 O66 2.381 . S
Cd58 O67 2.378 . S
O59 Cd60 2.385 . S
O59 C64 1.255 . S
Cd60 O59 2.385 . S
Cd60 O61 2.317 1_455 S
O61 Cd60 2.317 1_655 S
O61 C62 1.232 . S
C62 O61 1.232 . S
C62 O63 1.218 . S
O63 C62 1.218 . S
C64 O57 1.275 1_565 S
C64 O59 1.255 . S
C65 O66 1.258 . S
C65 O67 1.256 . S
O66 Cd58 2.381 . S
O66 C65 1.258 . S
O67 Cd58 2.378 . S
O67 C65 1.256 . S
O68 Cd69 2.300 . S
O68 C75 1.275 . S
Cd69 O68 2.300 . S
Cd69 O77 2.381 . S
Cd69 O78 2.378 . S
O70 Cd71 2.385 . S
O70 C75 1.255 . S
Cd71 O70 2.385 . S
Cd71 O72 2.317 . S
O72 Cd71 2.317 . S
O72 C73 1.232 . S
C73 O72 1.232 . S
C73 O74 1.218 . S
O74 C73 1.218 . S
C75 O68 1.275 . S
C75 O70 1.255 . S
C76 O77 1.258 . S
C76 O78 1.256 . S
O77 Cd69 2.381 . S
O77 C76 1.258 . S
O78 Cd69 2.378 . S
O78 C76 1.256 . S
O79 Cd80 2.300 . S
O79 C86 1.275 . S
Cd80 O79 2.300 . S
Cd80 O88 2.381 . S
Cd80 O89 2.378 . S
O81 Cd82 2.385 . S
O81 C86 1.255 . S
Cd82 O81 2.385 . S
Cd82 O83 2.317 . S
O83 Cd82 2.317 . S
O83 C84 1.232 . S
C84 O83 1.232 . S
C84 O85 1.218 . S
O85 C84 1.218 . S
C86 O79 1.275 . S
C86 O81 1.255 . S
C87 O88 1.258 . S
C87 O89 1.256 . S
O88 Cd80 2.381 . S
O88 C87 1.258 . S
O89 Cd80 2.378 . S
O89 C87 1.256 . S
C90 C91 1.387 . S
C90 H94 0.950 1_554 S
C90 C99 1.390 . S
C91 C90 1.387 . S
C91 C93 1.387 . S
H92 C99 0.950 1_556 S
C93 C91 1.387 . S
C93 C95 1.390 . S
C93 H97 0.950 . S
H94 C90 0.950 1_556 S
C95 C93 1.390 . S
C95 C96 1.387 . S
C95 H98 0.950 . S
C96 C95 1.387 . S
C96 C99 1.387 . S
H97 C93 0.950 . S
H98 C95 0.950 . S
C99 C90 1.390 . S
C99 H92 0.950 1_554 S
C99 C96 1.387 . S
C100 C101 1.387 1_554 S
C100 H104 0.950 . S
C100 C109 1.390 1_554 S
C101 C100 1.387 1_556 S
C101 C103 1.387 . S
H102 C109 0.950 1_554 S
C103 C101 1.387 . S
C103 C105 1.390 . S
C103 H107 0.950 . S
H104 C100 0.950 . S
C105 C103 1.390 . S
C105 C106 1.387 . S
C105 H108 0.950 . S
C106 C105 1.387 . S
C106 C109 1.387 . S
H107 C103 0.950 . S
H108 C105 0.950 . S
C109 C100 1.390 1_556 S
C109 H102 0.950 1_556 S
C109 C106 1.387 . S
C110 C111 1.382 1_556 S
C110 H114 0.958 . S
C110 C119 1.388 1_556 S
C111 C110 1.382 1_554 S
C111 C113 1.387 . S
H112 C119 0.950 1_556 S
C113 C111 1.387 . S
C113 C115 1.390 . S
C113 H117 0.950 . S
H114 C110 0.958 . S
C115 C113 1.390 . S
C115 C116 1.387 . S
C115 H118 0.950 . S
C116 C115 1.387 . S
C116 C119 1.387 . S
H117 C113 0.950 . S
H118 C115 0.950 . S
C119 C110 1.388 1_554 S
C119 H112 0.950 1_554 S
C119 C116 1.387 . S
C120 C121 1.387 . S
C120 H124 0.950 . S
C120 C129 1.390 . S
C121 C120 1.387 . S
C121 C123 1.387 1_556 S
H122 C129 0.950 . S
C123 C121 1.387 1_554 S
C123 C125 1.390 . S
C123 H127 0.950 . S
H124 C120 0.950 . S
C125 C123 1.390 . S
C125 C126 1.387 1_554 S
C125 H128 0.950 . S
C126 C125 1.387 1_556 S
C126 C129 1.387 . S
H127 C123 0.950 . S
H128 C125 0.950 . S
C129 C120 1.390 . S
C129 H122 0.950 . S
C129 C126 1.387 . S
C130 C131 1.387 . S
C130 H134 0.950 . S
C130 C139 1.390 . S
C131 C130 1.387 . S
C131 C133 1.387 . S
H132 C139 0.950 . S
C133 C131 1.387 . S
C133 C135 1.390 . S
C133 H137 0.950 . S
H134 C130 0.950 . S
C135 C133 1.390 . S
C135 C136 1.387 . S
C135 H138 0.950 . S
C136 C135 1.387 . S
C136 C139 1.387 . S
H137 C133 0.950 . S
H138 C135 0.950 . S
C139 C130 1.390 . S
C139 H132 0.950 . S
C139 C136 1.387 . S
C140 C141 1.387 . S
C140 H144 0.950 . S
C140 C149 1.390 . S
C141 C140 1.387 . S
C141 C143 1.387 . S
H142 C149 0.950 . S
C143 C141 1.387 . S
C143 C145 1.390 . S
C143 H147 0.950 . S
H144 C140 0.950 . S
C145 C143 1.390 . S
C145 C146 1.387 . S
C145 H148 0.950 . S
C146 C145 1.387 . S
C146 C149 1.387 . S
H147 C143 0.950 . S
H148 C145 0.950 . S
C149 C140 1.390 . S
C149 H142 0.950 . S
C149 C146 1.387 . S
C150 C151 1.387 . S
C150 H154 0.950 . S
C150 C159 1.390 . S
C151 C150 1.387 . S
C151 C153 1.387 . S
H152 C159 0.950 . S
C153 C151 1.387 . S
C153 C155 1.390 . S
C153 H157 0.950 . S
H154 C150 0.950 . S
C155 C153 1.390 . S
C155 C156 1.387 . S
C155 H158 0.950 . S
C156 C155 1.387 . S
C156 C159 1.387 . S
H157 C153 0.950 . S
H158 C155 0.950 . S
C159 C150 1.390 . S
C159 H152 0.950 . S
C159 C156 1.387 . S
C160 C161 1.387 . S
C160 H164 0.950 . S
C160 C169 1.390 . S
C161 C160 1.387 . S
C161 C163 1.387 . S
H162 C169 0.950 . S
C163 C161 1.387 . S
C163 C165 1.390 . S
C163 H167 0.950 . S
H164 C160 0.950 . S
C165 C163 1.390 . S
C165 C166 1.387 . S
C165 H168 0.950 . S
C166 C165 1.387 . S
C166 C169 1.387 . S
H167 C163 0.950 . S
H168 C165 0.950 . S
C169 C160 1.390 . S
C169 H162 0.950 . S
C169 C166 1.387 . S
C170 C171 1.387 1_665 S
C170 H174 0.950 . S
C170 C179 1.390 . S
C171 C170 1.387 1_445 S
C171 C173 1.387 . S
H172 C179 0.950 . S
C173 C171 1.387 . S
C173 C175 1.390 . S
C173 H177 0.950 . S
H174 C170 0.950 . S
C175 C173 1.390 . S
C175 C176 1.387 1_455 S
C175 H178 0.950 . S
C176 C175 1.387 1_655 S
C176 C179 1.387 1_545 S
H177 C173 0.950 . S
H178 C175 0.950 . S
C179 C170 1.390 . S
C179 H172 0.950 . S
C179 C176 1.387 1_565 S
C180 C181 1.387 1_655 S
C180 H184 0.950 . S
C180 C189 1.390 . S
C181 C180 1.387 1_455 S
C181 C183 1.387 1_565 S
H182 C189 0.950 . S
C183 C181 1.387 1_545 S
C183 C185 1.390 . S
C183 H187 0.950 . S
H184 C180 0.950 . S
C185 C183 1.390 . S
C185 C186 1.387 1_545 S
C185 H188 0.950 . S
C186 C185 1.387 1_565 S
C186 C189 1.387 1_455 S
H187 C183 0.950 . S
H188 C185 0.950 . S
C189 C180 1.390 . S
C189 H182 0.950 . S
C189 C186 1.387 1_655 S
C190 C191 1.387 . S
C190 H194 0.950 . S
C190 C199 1.390 . S
C191 C190 1.387 . S
C191 C193 1.387 . S
H192 C199 0.950 . S
C193 C191 1.387 . S
C193 C195 1.390 . S
C193 H197 0.950 . S
H194 C190 0.950 . S
C195 C193 1.390 . S
C195 C196 1.387 . S
C195 H198 0.950 . S
C196 C195 1.387 . S
C196 C199 1.387 . S
H197 C193 0.950 . S
H198 C195 0.950 . S
C199 C190 1.390 . S
C199 H192 0.950 . S
C199 C196 1.387 . S
C200 C201 1.387 . S
C200 H204 0.950 . S
C200 C209 1.390 . S
C201 C200 1.387 . S
C201 C203 1.387 . S
H202 C209 0.950 . S
C203 C201 1.387 . S
C203 C205 1.390 . S
C203 H207 0.950 . S
H204 C200 0.950 . S
C205 C203 1.390 . S
C205 C206 1.387 . S
C205 H208 0.950 . S
C206 C205 1.387 . S
C206 C209 1.387 . S
H207 C203 0.950 . S
H208 C205 0.950 . S
C209 C200 1.390 . S
C209 H202 0.950 . S
C209 C206 1.387 . S
C96 C84 1.325 . S
C91 C21 1.499 . S
C101 C19 1.498 . S
C106 C73 1.308 . S
C111 C18 1.436 . S
C116 C87 1.433 . S
C121 C20 1.444 . S
C126 C76 1.437 . S
C131 C44 1.499 . S
C136 C62 1.325 . S
C141 C42 1.497 . S
C146 C51 1.303 . S
C156 C65 1.433 . S
C151 C41 1.436 . S
C166 C54 1.435 . S
C161 C43 1.445 . S
C171 C16 1.520 . S
C176 C53 1.454 1_655 S
C181 C17 1.490 . S
C186 C64 1.435 . S
C196 C75 1.453 . S
C191 C39 1.520 . S
C201 C40 1.490 . S
C206 C86 1.432 . S
