# Generated by pormake.
# Topology bcu-b, (8,8)-cn, num edge types: 1
# Building blocks:
#     Node 0, Type 0, BuildingBlock: VETTIZ_charged_sbu_0, # of connection points: 8
#     Node 1, Type 1, BuildingBlock: TAGTUT_clean_sbu_1, # of connection points: 8
#     Edge 2, Type (0, 1), BuildingBlock: AJUNOK_clean_linker_0, # of connection points: 2
#     Edge 3, Type (0, 1), BuildingBlock: AJUNOK_clean_linker_0, # of connection points: 2
#     Edge 4, Type (0, 1), BuildingBlock: AJUNOK_clean_linker_0, # of connection points: 2
#     Edge 5, Type (0, 1), BuildingBlock: AJUNOK_clean_linker_0, # of connection points: 2
#     Edge 6, Type (0, 1), BuildingBlock: AJUNOK_clean_linker_0, # of connection points: 2
#     Edge 7, Type (0, 1), BuildingBlock: AJUNOK_clean_linker_0, # of connection points: 2
#     Edge 8, Type (0, 1), BuildingBlock: AJUNOK_clean_linker_0, # of connection points: 2
#     Edge 9, Type (0, 1), BuildingBlock: AJUNOK_clean_linker_0, # of connection points: 2
# Relax obj value: 0.025
# Max RMSD: 0.113
# Mean RMSD: 0.086
data_MOF--net-bcu-b--node1-VETTIZ_charged_sbu_0--node2-TAGTUT_clean_sbu_1--edge1-AJUNOK_clean_linker_0
_symmetry_space_group_name_H-M    P1
_symmetry_Int_Tables_number       1
_symmetry_cell_setting            triclinic
loop_
_symmetry_equiv_pos_as_xyz
'x, y, z'
_cell_length_a     15.30848
_cell_length_b     14.596493
_cell_length_c     16.204397
_cell_angle_alpha  90.528598
_cell_angle_beta   90.053507
_cell_angle_gamma 103.1299
loop_
_atom_site_label
_atom_site_type_symbol
_atom_site_fract_x
_atom_site_fract_y
_atom_site_fract_z
_atom_type_partial_charge
Fe0 Fe 1.00825 0.79664 0.98141 0.0
O1 O 0.04493 0.9351 0.98743 0.0
Fe2 Fe 0.9966 1.01132 0.8947 0.0
Fe3 Fe 0.0225 1.00981 0.08663 0.0
O4 O 0.04375 0.93487 0.97852 0.0
O5 O 0.97448 0.08613 -0.00627 0.0
O6 O 0.97533 0.08618 0.00266 0.0
Fe7 Fe 0.01088 0.22445 -0.00083 0.0
C8 C 0.87425 0.83738 0.11036 0.0
O9 O 0.11072 0.80969 0.0648 0.0
O10 O 0.08006 0.91828 0.15895 0.0
O11 O 0.09776 0.23647 0.89993 0.0
O12 O 0.12372 0.0941 0.87874 0.0
O13 O 0.02851 0.92136 0.80245 0.0
O14 O 0.0828 0.81033 0.87575 0.0
O15 O 0.14973 0.09536 0.08026 0.0
O16 O 0.11638 0.23535 0.07965 0.0
C17 C 0.06763 0.85088 0.80797 0.0
O18 O 0.90869 0.21142 0.91505 0.0
O19 O 0.93988 0.10232 0.82185 0.0
O20 O 0.92237 0.78445 0.0809 0.0
O21 O 0.89531 0.92631 0.10207 0.0
C22 C 0.12269 0.85452 0.13466 0.0
C23 C 0.16643 0.1817 0.10226 0.0
C24 C 0.95033 0.17094 0.17281 0.0
O25 O 0.98987 0.10057 0.17891 0.0
O26 O 0.93542 0.2104 0.10431 0.0
C27 C 0.14481 0.18283 0.86962 0.0
O28 O 0.86938 0.92632 0.90136 0.0
O29 O 0.90229 0.78606 0.90159 0.0
C30 C 0.89698 0.16571 0.84567 0.0
C31 C 0.85251 0.84007 0.87922 0.0
C32 C 0.25379 0.68309 0.56886 0.0
C33 C 0.35834 0.69367 0.33735 0.0
C34 C 0.39535 0.33195 0.38321 0.0
Mg35 Mg 0.44847 0.71037 0.50401 0.0
O36 O 0.41855 0.58072 0.5219 0.0
Mg37 Mg 0.31049 0.50418 0.46424 0.0
Mg38 Mg 0.51027 0.5112 0.49043 0.0
O39 O 0.60254 0.4415 0.45912 0.0
Mg40 Mg 0.57404 0.31204 0.47968 0.0
Mg41 Mg 0.71011 0.52023 0.51612 0.0
C42 C 0.62655 0.69084 0.59761 0.0
C43 C 0.65518 0.64419 0.36751 0.0
O44 O 0.23173 0.59906 0.53808 0.0
O45 O 0.33308 0.73503 0.56386 0.0
O46 O 0.31665 0.61207 0.36069 0.0
O47 O 0.42504 0.74186 0.37768 0.0
O48 O 0.57525 0.74321 0.57177 0.0
O49 O 0.61203 0.60272 0.57869 0.0
C50 C 0.36389 0.37736 0.61203 0.0
O51 O 0.44776 0.40763 0.59614 0.0
O52 O 0.30299 0.40307 0.5703 0.0
O53 O 0.79041 0.42559 0.4447 0.0
O54 O 0.69183 0.28654 0.42297 0.0
O55 O 0.70423 0.41577 0.62006 0.0
C56 C 0.77051 0.33991 0.4177 0.0
O57 O 0.59774 0.28403 0.60747 0.0
O58 O 0.44732 0.28054 0.41009 0.0
C59 C 0.66507 0.33442 0.64566 0.0
O60 O 0.40872 0.42018 0.40189 0.0
O61 O 0.57167 0.61428 0.3846 0.0
O62 O 0.71672 0.61911 0.40875 0.0
C63 C 0.25452 0.315 0.18792 0.0
C64 C 0.23078 0.21742 0.17075 0.0
C65 C 0.3036 0.35128 0.2588 0.0
C66 C 0.33135 0.29166 0.31597 0.0
H67 H 0.23433 0.36426 0.14643 0.0
H68 H 0.32168 0.4269 0.26761 0.0
S69 S 0.2845 0.03101 0.30288 0.0
N70 N 0.23803 0.06198 0.21877 0.0
N71 N 0.32911 0.12987 0.35209 0.0
C72 C 0.30747 0.194 0.30022 0.0
C73 C 0.25801 0.15704 0.22763 0.0
C74 C 0.92673 0.31294 0.24666 0.0
C75 C 0.92363 0.21555 0.24793 0.0
C76 C 0.88442 0.35571 0.30741 0.0
C77 C 0.83683 0.30219 0.37093 0.0
H78 H 0.95799 0.35572 0.19573 0.0
H79 H 0.88268 0.42907 0.30061 0.0
S80 S 0.82582 0.05049 0.4132 0.0
N81 N 0.88358 0.07134 0.32661 0.0
N82 N 0.80108 0.15109 0.44005 0.0
C83 C 0.84093 0.20718 0.37786 0.0
C84 C 0.88546 0.16396 0.31658 0.0
C85 C 0.78322 0.84227 0.23834 0.0
C86 C 0.79922 0.79443 0.16608 0.0
C87 C 0.72797 0.7955 0.30146 0.0
C88 C 0.68442 0.70013 0.29312 0.0
H89 H 0.81926 0.91404 0.24895 0.0
H90 H 0.72419 0.83229 0.35926 0.0
S91 S 0.69313 0.5467 0.11144 0.0
N92 N 0.7592 0.64872 0.08663 0.0
N93 N 0.65392 0.56191 0.20429 0.0
C94 C 0.69356 0.65387 0.21842 0.0
C95 C 0.75115 0.70076 0.155 0.0
C96 C 0.26771 0.80717 0.15659 0.0
C97 C 0.18826 0.82627 0.1899 0.0
C98 C 0.32578 0.76751 0.20476 0.0
C99 C 0.30527 0.74494 0.28728 0.0
H100 H 0.28397 0.82104 0.09218 0.0
H101 H 0.38489 0.75158 0.17675 0.0
S102 S 0.10829 0.7842 0.40445 0.0
N103 N 0.09453 0.82247 0.31086 0.0
N104 N 0.20287 0.74793 0.4014 0.0
C105 C 0.2277 0.76642 0.32176 0.0
C106 C 0.16923 0.80712 0.27308 0.0
C107 C 0.15549 0.86467 0.67851 0.0
C108 C 0.09488 0.80924 0.73248 0.0
C109 C 0.20163 0.82235 0.62044 0.0
C110 C 0.18803 0.72349 0.61452 0.0
H111 H 0.17267 0.94051 0.68556 0.0
H112 H 0.25223 0.86753 0.58325 0.0
S113 S 0.02143 0.54888 0.73122 0.0
N114 N 0.01237 0.65198 0.76862 0.0
N115 N 0.09918 0.5722 0.65897 0.0
C116 C 0.12024 0.66778 0.66215 0.0
C117 C 0.07374 0.7109 0.7216 0.0
C118 C 0.22653 0.17946 0.73604 0.0
C119 C 0.21844 0.22433 0.81206 0.0
C120 C 0.28183 0.22643 0.67303 0.0
C121 C 0.33312 0.31865 0.68476 0.0
H122 H 0.18448 0.11062 0.7227 0.0
H123 H 0.27993 0.19276 0.61296 0.0
S124 S 0.3445 0.46254 0.87559 0.0
N125 N 0.27241 0.36324 0.89769 0.0
N126 N 0.37798 0.45003 0.78007 0.0
C127 C 0.33107 0.36125 0.76252 0.0
C128 C 0.27335 0.31444 0.826 0.0
C129 C 0.87054 0.26652 0.73205 0.0
C130 C 0.83535 0.1962 0.78856 0.0
C131 C 0.81412 0.31171 0.68843 0.0
C132 C 0.72002 0.28792 0.69917 0.0
H133 H 0.94245 0.28904 0.7236 0.0
H134 H 0.84504 0.36539 0.64505 0.0
S135 S 0.59533 0.10519 0.83903 0.0
N136 N 0.70184 0.10371 0.85409 0.0
N137 N 0.59453 0.18603 0.76839 0.0
C138 C 0.68383 0.21548 0.75399 0.0
C139 C 0.74189 0.17068 0.79999 0.0
C140 C 0.75812 0.70742 0.79775 0.0
C141 C 0.78928 0.80524 0.81004 0.0
C142 C 0.70994 0.67048 0.72663 0.0
C143 C 0.69089 0.72982 0.66453 0.0
H144 H 0.77164 0.6586 0.8434 0.0
H145 H 0.68536 0.59495 0.72155 0.0
S146 S 0.76407 0.99015 0.66169 0.0
N147 N 0.80164 0.96004 0.75062 0.0
N148 N 0.71147 0.89077 0.61727 0.0
C149 C 0.72307 0.82749 0.67497 0.0
C150 C 0.77175 0.86515 0.74761 0.0
loop_
_geom_bond_atom_site_label_1
_geom_bond_atom_site_label_2
_geom_bond_distance
_geom_bond_site_symmetry_2
_ccdc_geom_bond_type
Fe0 O1 1.886 . S
Fe0 O4 1.715 1_554 S
Fe0 O9 2.077 1_655 S
Fe0 O14 1.935 1_654 S
Fe0 O20 2.077 . S
Fe0 O29 1.935 1_554 S
O1 Fe0 1.886 . S
O1 Fe3 1.715 1_665 S
Fe2 O4 1.886 . S
Fe2 O5 1.715 1_665 S
Fe2 O12 1.935 1_665 S
Fe2 O13 2.077 1_655 S
Fe2 O19 1.935 1_565 S
Fe2 O28 2.077 . S
Fe3 O1 1.715 1_445 S
Fe3 O6 1.886 . S
Fe3 O10 1.935 1_545 S
Fe3 O15 2.077 . S
Fe3 O21 1.935 1_445 S
Fe3 O25 2.077 1_455 S
O4 Fe0 1.715 1_556 S
O4 Fe2 1.886 . S
O5 Fe2 1.715 1_445 S
O5 Fe7 1.896 . S
O6 Fe3 1.886 . S
O6 Fe7 1.705 1_554 S
Fe7 O5 1.896 . S
Fe7 O6 1.705 1_556 S
Fe7 O11 2.087 . S
Fe7 O16 1.928 1_556 S
Fe7 O18 2.086 1_455 S
Fe7 O26 1.927 1_456 S
C8 O20 1.381 . S
C8 O21 1.421 . S
O9 Fe0 2.077 1_455 S
O9 C22 1.381 . S
O10 Fe3 1.935 1_565 S
O10 C22 1.421 . S
O11 Fe7 2.087 . S
O11 C27 1.381 . S
O12 Fe2 1.935 1_445 S
O12 C27 1.421 . S
O13 Fe2 2.077 1_455 S
O13 C17 1.381 . S
O14 Fe0 1.935 1_456 S
O14 C17 1.421 . S
O15 Fe3 2.077 . S
O15 C23 1.381 . S
O16 Fe7 1.928 1_554 S
O16 C23 1.421 . S
C17 O13 1.381 . S
C17 O14 1.421 . S
O18 Fe7 2.086 1_655 S
O18 C30 1.381 . S
O19 Fe2 1.935 1_545 S
O19 C30 1.421 . S
O20 Fe0 2.077 . S
O20 C8 1.381 . S
O21 Fe3 1.935 1_665 S
O21 C8 1.421 . S
C22 O9 1.381 . S
C22 O10 1.421 . S
C23 O15 1.381 . S
C23 O16 1.421 . S
C24 O25 1.381 . S
C24 O26 1.421 . S
O25 Fe3 2.077 1_655 S
O25 C24 1.381 . S
O26 Fe7 1.927 1_654 S
O26 C24 1.421 . S
C27 O11 1.381 . S
C27 O12 1.421 . S
O28 Fe2 2.077 . S
O28 C31 1.381 . S
O29 Fe0 1.935 1_556 S
O29 C31 1.421 . S
C30 O18 1.381 . S
C30 O19 1.421 . S
C31 O28 1.381 . S
C31 O29 1.421 . S
C32 O44 1.241 . S
C32 O45 1.280 . S
C33 O46 1.277 . S
C33 O47 1.245 . S
C34 O58 1.247 . S
C34 O60 1.289 . S
Mg35 O36 1.926 . S
Mg35 O45 1.984 . S
Mg35 O47 1.988 . S
Mg35 O48 2.061 . S
O36 Mg35 1.926 . S
O36 Mg37 1.986 . S
O36 Mg38 1.917 . S
Mg37 O36 1.986 . S
Mg37 O44 2.042 . S
Mg37 O46 2.041 . S
Mg37 O52 2.038 . S
Mg37 O60 2.238 . S
Mg38 O36 1.917 . S
Mg38 O39 1.917 . S
Mg38 O49 2.106 . S
Mg38 O51 2.079 . S
Mg38 O60 2.106 . S
Mg38 O61 2.079 . S
O39 Mg38 1.917 . S
O39 Mg40 1.926 . S
O39 Mg41 1.986 . S
Mg40 O39 1.926 . S
Mg40 O54 1.984 . S
Mg40 O57 1.988 . S
Mg40 O58 2.061 . S
Mg41 O39 1.986 . S
Mg41 O49 2.238 . S
Mg41 O53 2.042 . S
Mg41 O55 2.041 . S
Mg41 O62 2.038 . S
C42 O48 1.247 . S
C42 O49 1.289 . S
C43 O61 1.245 . S
C43 O62 1.274 . S
O44 C32 1.241 . S
O44 Mg37 2.042 . S
O45 C32 1.280 . S
O45 Mg35 1.984 . S
O46 C33 1.277 . S
O46 Mg37 2.041 . S
O47 C33 1.245 . S
O47 Mg35 1.988 . S
O48 Mg35 2.061 . S
O48 C42 1.247 . S
O49 Mg38 2.106 . S
O49 Mg41 2.238 . S
O49 C42 1.289 . S
C50 O51 1.245 . S
C50 O52 1.274 . S
O51 Mg38 2.079 . S
O51 C50 1.245 . S
O52 Mg37 2.038 . S
O52 C50 1.274 . S
O53 Mg41 2.042 . S
O53 C56 1.241 . S
O54 Mg40 1.984 . S
O54 C56 1.280 . S
O55 Mg41 2.041 . S
O55 C59 1.277 . S
C56 O53 1.241 . S
C56 O54 1.280 . S
O57 Mg40 1.988 . S
O57 C59 1.245 . S
O58 C34 1.247 . S
O58 Mg40 2.061 . S
C59 O55 1.277 . S
C59 O57 1.245 . S
O60 C34 1.289 . S
O60 Mg37 2.238 . S
O60 Mg38 2.106 . S
O61 Mg38 2.079 . S
O61 C43 1.245 . S
O62 Mg41 2.038 . S
O62 C43 1.274 . S
C63 C64 1.369 . S
C63 C65 1.419 . S
C63 H67 0.930 . S
C64 C63 1.369 . S
C64 C73 1.429 . S
C65 C63 1.419 . S
C65 C66 1.363 . S
C65 H68 0.929 . S
C66 C65 1.363 . S
C66 C72 1.428 . S
H67 C63 0.930 . S
H68 C65 0.929 . S
S69 N70 1.613 . S
S69 N71 1.610 . S
N70 S69 1.613 . S
N70 C73 1.350 . S
N71 S69 1.610 . S
N71 C72 1.351 . S
C72 C66 1.428 . S
C72 N71 1.351 . S
C72 C73 1.434 . S
C73 C64 1.429 . S
C73 N70 1.350 . S
C73 C72 1.434 . S
C74 C75 1.369 . S
C74 C76 1.419 . S
C74 H78 0.930 . S
C75 C74 1.369 . S
C75 C84 1.429 . S
C76 C74 1.419 . S
C76 C77 1.363 . S
C76 H79 0.929 . S
C77 C76 1.363 . S
C77 C83 1.428 . S
H78 C74 0.930 . S
H79 C76 0.929 . S
S80 N81 1.613 . S
S80 N82 1.610 . S
N81 S80 1.613 . S
N81 C84 1.350 . S
N82 S80 1.610 . S
N82 C83 1.351 . S
C83 C77 1.428 . S
C83 N82 1.351 . S
C83 C84 1.434 . S
C84 C75 1.429 . S
C84 N81 1.350 . S
C84 C83 1.434 . S
C85 C86 1.369 . S
C85 C87 1.419 . S
C85 H89 0.930 . S
C86 C85 1.369 . S
C86 C95 1.429 . S
C87 C85 1.419 . S
C87 C88 1.363 . S
C87 H90 0.929 . S
C88 C87 1.363 . S
C88 C94 1.428 . S
H89 C85 0.930 . S
H90 C87 0.929 . S
S91 N92 1.613 . S
S91 N93 1.610 . S
N92 S91 1.613 . S
N92 C95 1.350 . S
N93 S91 1.610 . S
N93 C94 1.351 . S
C94 C88 1.428 . S
C94 N93 1.351 . S
C94 C95 1.434 . S
C95 C86 1.429 . S
C95 N92 1.350 . S
C95 C94 1.434 . S
C96 C97 1.369 . S
C96 C98 1.419 . S
C96 H100 0.930 . S
C97 C96 1.369 . S
C97 C106 1.429 . S
C98 C96 1.419 . S
C98 C99 1.363 . S
C98 H101 0.929 . S
C99 C98 1.363 . S
C99 C105 1.428 . S
H100 C96 0.930 . S
H101 C98 0.929 . S
S102 N103 1.613 . S
S102 N104 1.610 . S
N103 S102 1.613 . S
N103 C106 1.350 . S
N104 S102 1.610 . S
N104 C105 1.351 . S
C105 C99 1.428 . S
C105 N104 1.351 . S
C105 C106 1.434 . S
C106 C97 1.429 . S
C106 N103 1.350 . S
C106 C105 1.434 . S
C107 C108 1.369 . S
C107 C109 1.419 . S
C107 H111 0.930 . S
C108 C107 1.369 . S
C108 C117 1.429 . S
C109 C107 1.419 . S
C109 C110 1.363 . S
C109 H112 0.929 . S
C110 C109 1.363 . S
C110 C116 1.428 . S
H111 C107 0.930 . S
H112 C109 0.929 . S
S113 N114 1.613 . S
S113 N115 1.610 . S
N114 S113 1.613 . S
N114 C117 1.350 . S
N115 S113 1.610 . S
N115 C116 1.351 . S
C116 C110 1.428 . S
C116 N115 1.351 . S
C116 C117 1.434 . S
C117 C108 1.429 . S
C117 N114 1.350 . S
C117 C116 1.434 . S
C118 C119 1.369 . S
C118 C120 1.419 . S
C118 H122 0.930 . S
C119 C118 1.369 . S
C119 C128 1.429 . S
C120 C118 1.419 . S
C120 C121 1.363 . S
C120 H123 0.929 . S
C121 C120 1.363 . S
C121 C127 1.428 . S
H122 C118 0.930 . S
H123 C120 0.929 . S
S124 N125 1.613 . S
S124 N126 1.610 . S
N125 S124 1.613 . S
N125 C128 1.350 . S
N126 S124 1.610 . S
N126 C127 1.351 . S
C127 C121 1.428 . S
C127 N126 1.351 . S
C127 C128 1.434 . S
C128 C119 1.429 . S
C128 N125 1.350 . S
C128 C127 1.434 . S
C129 C130 1.369 . S
C129 C131 1.419 . S
C129 H133 0.930 . S
C130 C129 1.369 . S
C130 C139 1.429 . S
C131 C129 1.419 . S
C131 C132 1.363 . S
C131 H134 0.929 . S
C132 C131 1.363 . S
C132 C138 1.428 . S
H133 C129 0.930 . S
H134 C131 0.929 . S
S135 N136 1.613 . S
S135 N137 1.610 . S
N136 S135 1.613 . S
N136 C139 1.350 . S
N137 S135 1.610 . S
N137 C138 1.351 . S
C138 C132 1.428 . S
C138 N137 1.351 . S
C138 C139 1.434 . S
C139 C130 1.429 . S
C139 N136 1.350 . S
C139 C138 1.434 . S
C140 C141 1.369 . S
C140 C142 1.419 . S
C140 H144 0.930 . S
C141 C140 1.369 . S
C141 C150 1.429 . S
C142 C140 1.419 . S
C142 C143 1.363 . S
C142 H145 0.929 . S
C143 C142 1.363 . S
C143 C149 1.428 . S
H144 C140 0.930 . S
H145 C142 0.929 . S
S146 N147 1.613 . S
S146 N148 1.610 . S
N147 S146 1.613 . S
N147 C150 1.350 . S
N148 S146 1.610 . S
N148 C149 1.351 . S
C149 C143 1.428 . S
C149 N148 1.351 . S
C149 C150 1.434 . S
C150 C141 1.429 . S
C150 N147 1.350 . S
C150 C149 1.434 . S
C64 C23 1.263 . S
C66 C34 1.263 . S
C75 C24 1.472 . S
C77 C56 1.480 . S
C86 C8 1.533 . S
C88 C43 1.510 . S
C97 C22 1.556 . S
C99 C33 1.549 . S
C108 C17 1.468 . S
C110 C32 1.488 . S
C121 C50 1.514 . S
C119 C27 1.536 . S
C130 C30 1.561 . S
C132 C59 1.554 . S
C143 C42 1.264 . S
C141 C31 1.272 . S
