# Generated by pormake.
# Topology bcu-b, (8,8)-cn, num edge types: 1
# Building blocks:
#     Node 0, Type 0, BuildingBlock: TAGTUT_clean_sbu_1, # of connection points: 8
#     Node 1, Type 1, BuildingBlock: TAGTUT_clean_sbu_3, # of connection points: 8
#     Edge 2, Type (0, 1), BuildingBlock: CIFDUS_clean_linker_0, # of connection points: 2
#     Edge 3, Type (0, 1), BuildingBlock: CIFDUS_clean_linker_0, # of connection points: 2
#     Edge 4, Type (0, 1), BuildingBlock: CIFDUS_clean_linker_0, # of connection points: 2
#     Edge 5, Type (0, 1), BuildingBlock: CIFDUS_clean_linker_0, # of connection points: 2
#     Edge 6, Type (0, 1), BuildingBlock: CIFDUS_clean_linker_0, # of connection points: 2
#     Edge 7, Type (0, 1), BuildingBlock: CIFDUS_clean_linker_0, # of connection points: 2
#     Edge 8, Type (0, 1), BuildingBlock: CIFDUS_clean_linker_0, # of connection points: 2
#     Edge 9, Type (0, 1), BuildingBlock: CIFDUS_clean_linker_0, # of connection points: 2
# Relax obj value: 0.014
# Max RMSD: 0.082
# Mean RMSD: 0.071
data_MOF--net-bcu-b--node1-TAGTUT_clean_sbu_1--node2-TAGTUT_clean_sbu_3--edge1-CIFDUS_clean_linker_0
_symmetry_space_group_name_H-M    P1
_symmetry_Int_Tables_number       1
_symmetry_cell_setting            triclinic
loop_
_symmetry_equiv_pos_as_xyz
'x, y, z'
_cell_length_a     17.521933
_cell_length_b     16.922471
_cell_length_c     18.836373
_cell_angle_alpha  90.208105
_cell_angle_beta   90.494852
_cell_angle_gamma 108.4312
loop_
_atom_site_label
_atom_site_type_symbol
_atom_site_fract_x
_atom_site_fract_y
_atom_site_fract_z
_atom_type_partial_charge
C0 C 0.8646 0.20969 0.04763 0.0
C1 C 0.95396 0.18485 0.84161 0.0
C2 C 0.86673 0.85436 0.91241 0.0
Mg3 Mg 0.02771 0.19851 -0.0074 0.0
O4 O 0.97335 0.08428 0.00656 0.0
Mg5 Mg 0.86468 0.03435 0.96225 0.0
Mg6 Mg 0.02018 0.99529 0.97833 0.0
O7 O 0.06575 0.90495 0.95112 0.0
Mg8 Mg 1.00931 0.79591 0.98204 0.0
Mg9 Mg 0.17721 0.95679 -0.01037 0.0
C10 C 0.17042 0.13661 0.05602 0.0
C11 C 0.15333 0.06762 0.85664 0.0
O12 O 0.82958 0.13913 0.01762 0.0
O13 O 0.9414 0.24325 0.0481 0.0
O14 O 0.90001 0.11843 0.86225 0.0
O15 O 0.01256 0.22499 0.88192 0.0
O16 O 0.14251 0.19705 0.04244 0.0
O17 O 0.13254 0.06111 0.0383 0.0
C18 C 0.88119 0.91738 0.09525 0.0
O19 O 0.95232 0.92229 0.07488 0.0
O20 O 0.83813 0.95447 0.0622 0.0
O21 O 0.20334 0.84144 0.93751 0.0
O22 O 0.08578 0.73701 0.92784 0.0
O23 O 0.15252 0.88854 0.09352 0.0
C24 C 0.16196 0.76676 0.91809 0.0
O25 O 0.03417 0.7887 0.09599 0.0
O26 O 0.89152 0.79476 0.93549 0.0
C27 C 0.0996 0.83199 0.12658 0.0
O28 O 0.90994 0.93093 0.91688 0.0
O29 O 0.0855 0.06714 0.88184 0.0
O30 O 0.19675 0.02868 0.88637 0.0
C31 C 0.6141 0.63683 0.603 0.0
C32 C 0.77805 0.42097 0.55692 0.0
C33 C 0.6861 0.42628 0.34388 0.0
Mg34 Mg 0.45165 0.6456 0.51918 0.0
Mg35 Mg 0.32301 0.46383 0.47622 0.0
O36 O 0.42559 0.54239 0.45979 0.0
Mg37 Mg 0.51755 0.50258 0.48693 0.0
O38 O 0.61151 0.46735 0.51608 0.0
Mg39 Mg 0.7029 0.56238 0.47937 0.0
Mg40 Mg 0.60874 0.36193 0.48349 0.0
C41 C 0.40933 0.3637 0.3783 0.0
O42 O 0.43902 0.39286 0.55307 0.0
O43 O 0.34435 0.66967 0.4543 0.0
O44 O 0.49286 0.29176 0.52661 0.0
O45 O 0.36501 0.58803 0.6055 0.0
O46 O 0.26112 0.54053 0.42859 0.0
O47 O 0.28681 0.45811 0.58791 0.0
O48 O 0.60461 0.60666 0.42191 0.0
O49 O 0.54608 0.70484 0.43555 0.0
C50 C 0.60211 0.68026 0.40957 0.0
C51 C 0.27906 0.61999 0.426 0.0
O52 O 0.47968 0.41311 0.39403 0.0
O53 O 0.78574 0.49787 0.5427 0.0
O54 O 0.34493 0.36533 0.4102 0.0
O55 O 0.71988 0.49433 0.37734 0.0
O56 O 0.71612 0.36075 0.53749 0.0
O57 O 0.63056 0.36726 0.372 0.0
O58 O 0.54588 0.59566 0.57653 0.0
O59 O 0.67984 0.63014 0.57848 0.0
C60 C 0.31199 0.5229 0.62737 0.0
C61 C 0.43842 0.31664 0.55578 0.0
H62 H 0.31224 0.26306 0.068 0.0
H63 H 0.16201 0.04273 0.17151 0.0
H64 H 0.23485 0.08657 0.28286 0.0
H65 H 0.31932 0.20318 0.35539 0.0
H66 H 0.47514 0.42049 0.25208 0.0
H67 H 0.42372 0.36186 0.13594 0.0
C68 C 0.29798 0.22335 0.11432 0.0
C69 C 0.23193 0.15029 0.11208 0.0
C70 C 0.34007 0.24915 0.17846 0.0
C71 C 0.21353 0.09882 0.17204 0.0
C72 C 0.25436 0.12441 0.23605 0.0
C73 C 0.34397 0.23595 0.30717 0.0
C74 C 0.39919 0.31629 0.3117 0.0
C75 C 0.31456 0.2017 0.24071 0.0
C76 C 0.432 0.3584 0.2494 0.0
C77 C 0.40214 0.32532 0.18305 0.0
H78 H 0.91042 0.36429 0.10886 0.0
H79 H 0.70493 0.14395 0.07739 0.0
H80 H 0.62678 0.19852 0.15884 0.0
H81 H 0.62259 0.29888 0.25107 0.0
H82 H 0.82799 0.51855 0.28443 0.0
H83 H 0.89921 0.475 0.18901 0.0
C84 C 0.84825 0.32867 0.11909 0.0
C85 C 0.8144 0.24933 0.08822 0.0
C86 C 0.80347 0.36006 0.16658 0.0
C87 C 0.73314 0.20478 0.10102 0.0
C88 C 0.68819 0.23581 0.14776 0.0
C89 C 0.6824 0.33798 0.23668 0.0
C90 C 0.72059 0.41062 0.276 0.0
C91 C 0.72365 0.31192 0.1827 0.0
C92 C 0.7974 0.46166 0.25561 0.0
C93 C 0.83852 0.43657 0.20129 0.0
H94 H 0.7916 0.95648 0.19613 0.0
H95 H 0.88896 0.76366 0.13233 0.0
H96 H 0.81682 0.67434 0.22842 0.0
H97 H 0.71558 0.64717 0.32432 0.0
H98 H 0.61962 0.84305 0.38563 0.0
H99 H 0.70144 0.93458 0.29728 0.0
C100 C 0.7977 0.89522 0.20387 0.0
C101 C 0.84588 0.86681 0.15769 0.0
C102 C 0.75548 0.84431 0.25852 0.0
C103 C 0.85368 0.78757 0.16827 0.0
C104 C 0.81159 0.73614 0.22271 0.0
C105 C 0.71345 0.71019 0.31899 0.0
C106 C 0.66039 0.73737 0.36115 0.0
C107 C 0.76094 0.76328 0.26741 0.0
C108 C 0.65885 0.81962 0.35353 0.0
C109 C 0.70574 0.87238 0.30288 0.0
H110 H 0.04153 0.68568 0.1993 0.0
H111 H 0.21174 0.93328 0.21499 0.0
H112 H 0.2766 0.89284 0.31645 0.0
H113 H 0.30014 0.78136 0.38733 0.0
H114 H 0.13216 0.53237 0.37019 0.0
H115 H 0.05213 0.57916 0.28405 0.0
C116 C 0.09121 0.73132 0.22627 0.0
C117 C 0.12218 0.81202 0.19872 0.0
C118 C 0.13039 0.70692 0.28374 0.0
C119 C 0.18673 0.87048 0.23455 0.0
C120 C 0.22458 0.84727 0.29248 0.0
C121 C 0.24529 0.73766 0.36583 0.0
C122 C 0.22388 0.65316 0.38403 0.0
C123 C 0.19942 0.76464 0.31538 0.0
C124 C 0.15163 0.59767 0.35614 0.0
C125 C 0.10537 0.62426 0.30671 0.0
H126 H 0.0935 0.61866 0.84731 0.0
H127 H 0.32352 0.79674 0.90384 0.0
H128 H 0.39157 0.72164 0.83035 0.0
H129 H 0.38474 0.61959 0.73717 0.0
H130 H 0.15568 0.44853 0.67084 0.0
H131 H 0.08912 0.50328 0.76429 0.0
C132 C 0.15861 0.64046 0.84444 0.0
C133 C 0.2031 0.71458 0.88016 0.0
C134 C 0.19763 0.59774 0.80066 0.0
C135 C 0.28748 0.74108 0.87612 0.0
C136 C 0.32659 0.69791 0.83424 0.0
C137 C 0.32024 0.59284 0.74411 0.0
C138 C 0.27498 0.53125 0.69624 0.0
C139 C 0.28209 0.62815 0.79442 0.0
C140 C 0.19192 0.49606 0.70676 0.0
C141 C 0.15367 0.52853 0.75934 0.0
H142 H 0.23259 0.02652 0.74828 0.0
H143 H 0.14939 0.22357 0.82772 0.0
H144 H 0.22548 0.31758 0.73637 0.0
H145 H 0.33009 0.34751 0.64547 0.0
H146 H 0.40904 0.14848 0.56286 0.0
H147 H 0.32097 0.05129 0.64486 0.0
C148 C 0.2301 0.08964 0.74453 0.0
C149 C 0.18609 0.11862 0.79441 0.0
C150 C 0.27419 0.14304 0.69231 0.0
C151 C 0.1823 0.19998 0.78917 0.0
C152 C 0.22648 0.25386 0.73751 0.0
C153 C 0.32602 0.28252 0.64345 0.0
C154 C 0.37637 0.25582 0.59806 0.0
C155 C 0.27455 0.22665 0.69023 0.0
C156 C 0.37166 0.17124 0.5977 0.0
C157 C 0.32122 0.11543 0.64454 0.0
H158 H 0.97827 0.34868 0.81352 0.0
H159 H 0.89395 0.10358 0.71869 0.0
H160 H 0.84413 0.15983 0.61526 0.0
H161 H 0.80734 0.27347 0.56049 0.0
H162 H 0.87859 0.51634 0.6596 0.0
H163 H 0.94951 0.46633 0.75294 0.0
C164 C 0.95098 0.30815 0.76923 0.0
C165 C 0.94009 0.22201 0.77352 0.0
C166 C 0.91904 0.34044 0.71126 0.0
C167 C 0.9032 0.16994 0.71647 0.0
C168 C 0.87437 0.20208 0.65753 0.0
C169 C 0.84017 0.31624 0.60153 0.0
C170 C 0.83723 0.39857 0.60317 0.0
C171 C 0.87938 0.2865 0.65559 0.0
C172 C 0.88043 0.45304 0.65655 0.0
C173 C 0.92089 0.42421 0.71015 0.0
H174 H 0.74455 0.70718 0.90373 0.0
H175 H 0.82362 0.95746 0.82114 0.0
H176 H 0.7324 0.9142 0.72064 0.0
H177 H 0.66045 0.79823 0.64157 0.0
H178 H 0.58013 0.54848 0.72298 0.0
H179 H 0.63976 0.59843 0.83906 0.0
C180 C 0.7398 0.75269 0.86496 0.0
C181 C 0.79315 0.83431 0.86826 0.0
C182 C 0.68768 0.72724 0.80646 0.0
C183 C 0.7846 0.89351 0.81906 0.0
C184 C 0.73265 0.86885 0.76108 0.0
C185 C 0.65279 0.75581 0.68597 0.0
C186 C 0.61754 0.67036 0.67461 0.0
C187 C 0.68834 0.78481 0.75185 0.0
C188 C 0.60742 0.6149 0.73153 0.0
C189 C 0.64224 0.64325 0.79748 0.0
loop_
_geom_bond_atom_site_label_1
_geom_bond_atom_site_label_2
_geom_bond_distance
_geom_bond_site_symmetry_2
_ccdc_geom_bond_type
C0 O12 1.241 . S
C0 O13 1.280 . S
C1 O14 1.277 . S
C1 O15 1.245 . S
C2 O26 1.247 . S
C2 O28 1.289 . S
Mg3 O4 1.926 . S
Mg3 O13 1.984 . S
Mg3 O15 1.988 1_554 S
Mg3 O16 2.061 1_655 S
O4 Mg3 1.926 . S
O4 Mg5 1.987 1_545 S
O4 Mg6 1.923 1_655 S
Mg5 O4 1.987 1_565 S
Mg5 O12 2.043 1_565 S
Mg5 O14 2.042 1_564 S
Mg5 O20 2.038 . S
Mg5 O28 2.237 1_554 S
Mg6 O4 1.923 1_455 S
Mg6 O7 1.911 1_544 S
Mg6 O17 2.108 . S
Mg6 O19 2.075 1_445 S
Mg6 O28 2.105 1_444 S
Mg6 O29 2.082 1_554 S
O7 Mg6 1.911 1_566 S
O7 Mg8 1.926 . S
O7 Mg9 1.986 1_566 S
Mg8 O7 1.926 . S
Mg8 O22 1.984 . S
Mg8 O25 1.988 1_556 S
Mg8 O26 2.061 1_455 S
Mg9 O7 1.986 1_544 S
Mg9 O17 2.238 . S
Mg9 O21 2.042 1_544 S
Mg9 O23 2.042 1_545 S
Mg9 O30 2.038 1_554 S
C10 O16 1.247 . S
C10 O17 1.289 . S
C11 O29 1.245 . S
C11 O30 1.274 . S
O12 C0 1.241 . S
O12 Mg5 2.043 1_545 S
O13 C0 1.280 . S
O13 Mg3 1.984 . S
O14 C1 1.277 . S
O14 Mg5 2.042 1_546 S
O15 C1 1.245 . S
O15 Mg3 1.988 1_556 S
O16 Mg3 2.061 1_455 S
O16 C10 1.247 . S
O17 Mg6 2.108 . S
O17 Mg9 2.238 . S
O17 C10 1.289 . S
C18 O19 1.245 . S
C18 O20 1.274 . S
O19 Mg6 2.075 1_665 S
O19 C18 1.245 . S
O20 Mg5 2.038 . S
O20 C18 1.274 . S
O21 Mg9 2.042 1_566 S
O21 C24 1.241 . S
O22 Mg8 1.984 . S
O22 C24 1.280 . S
O23 Mg9 2.042 1_565 S
O23 C27 1.277 . S
C24 O21 1.241 . S
C24 O22 1.280 . S
O25 Mg8 1.988 1_554 S
O25 C27 1.245 . S
O26 C2 1.247 . S
O26 Mg8 2.061 1_655 S
C27 O23 1.277 . S
C27 O25 1.245 . S
O28 C2 1.289 . S
O28 Mg5 2.237 1_556 S
O28 Mg6 2.105 1_666 S
O29 Mg6 2.082 1_556 S
O29 C11 1.245 . S
O30 Mg9 2.038 1_556 S
O30 C11 1.274 . S
C31 O58 1.312 . S
C31 O59 1.208 . S
C32 O53 1.331 . S
C32 O56 1.244 . S
C33 O55 1.264 . S
C33 O57 1.273 . S
Mg34 O36 1.936 . S
Mg34 O43 2.081 . S
Mg34 O45 2.023 . S
Mg34 O49 2.031 . S
Mg34 O58 2.291 . S
Mg35 O36 1.963 . S
Mg35 O46 1.942 . S
Mg35 O47 1.955 . S
Mg35 O54 1.986 . S
O36 Mg34 1.936 . S
O36 Mg35 1.963 . S
O36 Mg37 1.915 . S
Mg37 O36 1.915 . S
Mg37 O38 1.915 . S
Mg37 O42 2.013 . S
Mg37 O48 2.114 . S
Mg37 O52 2.013 . S
Mg37 O58 2.114 . S
O38 Mg37 1.915 . S
O38 Mg39 1.936 . S
O38 Mg40 1.963 . S
Mg39 O38 1.936 . S
Mg39 O48 2.291 . S
Mg39 O53 2.081 . S
Mg39 O55 2.023 . S
Mg39 O59 2.031 . S
Mg40 O38 1.963 . S
Mg40 O44 1.986 . S
Mg40 O56 1.942 . S
Mg40 O57 1.955 . S
C41 O52 1.191 . S
C41 O54 1.307 . S
O42 Mg37 2.013 . S
O42 C61 1.191 . S
O43 Mg34 2.081 . S
O43 C51 1.331 . S
O44 Mg40 1.986 . S
O44 C61 1.307 . S
O45 Mg34 2.023 . S
O45 C60 1.264 . S
O46 Mg35 1.942 . S
O46 C51 1.244 . S
O47 Mg35 1.955 . S
O47 C60 1.273 . S
O48 Mg37 2.114 . S
O48 Mg39 2.291 . S
O48 C50 1.312 . S
O49 Mg34 2.031 . S
O49 C50 1.208 . S
C50 O48 1.312 . S
C50 O49 1.208 . S
C51 O43 1.331 . S
C51 O46 1.244 . S
O52 Mg37 2.013 . S
O52 C41 1.191 . S
O53 C32 1.331 . S
O53 Mg39 2.081 . S
O54 Mg35 1.986 . S
O54 C41 1.307 . S
O55 C33 1.264 . S
O55 Mg39 2.023 . S
O56 C32 1.244 . S
O56 Mg40 1.942 . S
O57 C33 1.273 . S
O57 Mg40 1.955 . S
O58 C31 1.312 . S
O58 Mg34 2.291 . S
O58 Mg37 2.114 . S
O59 C31 1.208 . S
O59 Mg39 2.031 . S
C60 O45 1.264 . S
C60 O47 1.273 . S
C61 O42 1.191 . S
C61 O44 1.307 . S
H62 C68 0.930 . S
H63 C71 0.930 . S
H64 C72 0.930 . S
H65 C73 0.930 . S
H66 C76 0.930 . S
H67 C77 0.930 . S
C68 H62 0.930 . S
C68 C69 1.355 . S
C68 C70 1.415 . S
C69 C68 1.355 . S
C69 C71 1.419 . S
C70 C68 1.415 . S
C70 C75 1.425 . S
C70 C77 1.409 . S
C71 H63 0.930 . S
C71 C69 1.419 . S
C71 C72 1.362 . S
C72 H64 0.930 . S
C72 C71 1.362 . S
C72 C75 1.409 . S
C73 H65 0.930 . S
C73 C74 1.355 . S
C73 C75 1.415 . S
C74 C73 1.355 . S
C74 C76 1.419 . S
C75 C70 1.425 . S
C75 C72 1.409 . S
C75 C73 1.415 . S
C76 H66 0.930 . S
C76 C74 1.419 . S
C76 C77 1.362 . S
C77 H67 0.930 . S
C77 C70 1.409 . S
C77 C76 1.362 . S
H78 C84 0.930 . S
H79 C87 0.930 . S
H80 C88 0.930 . S
H81 C89 0.930 . S
H82 C92 0.930 . S
H83 C93 0.930 . S
C84 H78 0.930 . S
C84 C85 1.355 . S
C84 C86 1.415 . S
C85 C84 1.355 . S
C85 C87 1.419 . S
C86 C84 1.415 . S
C86 C91 1.425 . S
C86 C93 1.409 . S
C87 H79 0.930 . S
C87 C85 1.419 . S
C87 C88 1.362 . S
C88 H80 0.930 . S
C88 C87 1.362 . S
C88 C91 1.409 . S
C89 H81 0.930 . S
C89 C90 1.355 . S
C89 C91 1.415 . S
C90 C89 1.355 . S
C90 C92 1.419 . S
C91 C86 1.425 . S
C91 C88 1.409 . S
C91 C89 1.415 . S
C92 H82 0.930 . S
C92 C90 1.419 . S
C92 C93 1.362 . S
C93 H83 0.930 . S
C93 C86 1.409 . S
C93 C92 1.362 . S
H94 C100 0.930 . S
H95 C103 0.930 . S
H96 C104 0.930 . S
H97 C105 0.930 . S
H98 C108 0.930 . S
H99 C109 0.930 . S
C100 H94 0.930 . S
C100 C101 1.355 . S
C100 C102 1.415 . S
C101 C100 1.355 . S
C101 C103 1.419 . S
C102 C100 1.415 . S
C102 C107 1.425 . S
C102 C109 1.409 . S
C103 H95 0.930 . S
C103 C101 1.419 . S
C103 C104 1.362 . S
C104 H96 0.930 . S
C104 C103 1.362 . S
C104 C107 1.409 . S
C105 H97 0.930 . S
C105 C106 1.355 . S
C105 C107 1.415 . S
C106 C105 1.355 . S
C106 C108 1.419 . S
C107 C102 1.425 . S
C107 C104 1.409 . S
C107 C105 1.415 . S
C108 H98 0.930 . S
C108 C106 1.419 . S
C108 C109 1.362 . S
C109 H99 0.930 . S
C109 C102 1.409 . S
C109 C108 1.362 . S
H110 C116 0.930 . S
H111 C119 0.930 . S
H112 C120 0.930 . S
H113 C121 0.930 . S
H114 C124 0.930 . S
H115 C125 0.930 . S
C116 H110 0.930 . S
C116 C117 1.355 . S
C116 C118 1.415 . S
C117 C116 1.355 . S
C117 C119 1.419 . S
C118 C116 1.415 . S
C118 C123 1.425 . S
C118 C125 1.409 . S
C119 H111 0.930 . S
C119 C117 1.419 . S
C119 C120 1.362 . S
C120 H112 0.930 . S
C120 C119 1.362 . S
C120 C123 1.409 . S
C121 H113 0.930 . S
C121 C122 1.355 . S
C121 C123 1.415 . S
C122 C121 1.355 . S
C122 C124 1.419 . S
C123 C118 1.425 . S
C123 C120 1.409 . S
C123 C121 1.415 . S
C124 H114 0.930 . S
C124 C122 1.419 . S
C124 C125 1.362 . S
C125 H115 0.930 . S
C125 C118 1.409 . S
C125 C124 1.362 . S
H126 C132 0.930 . S
H127 C135 0.930 . S
H128 C136 0.930 . S
H129 C137 0.930 . S
H130 C140 0.930 . S
H131 C141 0.930 . S
C132 H126 0.930 . S
C132 C133 1.355 . S
C132 C134 1.415 . S
C133 C132 1.355 . S
C133 C135 1.419 . S
C134 C132 1.415 . S
C134 C139 1.425 . S
C134 C141 1.409 . S
C135 H127 0.930 . S
C135 C133 1.419 . S
C135 C136 1.362 . S
C136 H128 0.930 . S
C136 C135 1.362 . S
C136 C139 1.409 . S
C137 H129 0.930 . S
C137 C138 1.355 . S
C137 C139 1.415 . S
C138 C137 1.355 . S
C138 C140 1.419 . S
C139 C134 1.425 . S
C139 C136 1.409 . S
C139 C137 1.415 . S
C140 H130 0.930 . S
C140 C138 1.419 . S
C140 C141 1.362 . S
C141 H131 0.930 . S
C141 C134 1.409 . S
C141 C140 1.362 . S
H142 C148 0.930 . S
H143 C151 0.930 . S
H144 C152 0.930 . S
H145 C153 0.930 . S
H146 C156 0.930 . S
H147 C157 0.930 . S
C148 H142 0.930 . S
C148 C149 1.355 . S
C148 C150 1.415 . S
C149 C148 1.355 . S
C149 C151 1.419 . S
C150 C148 1.415 . S
C150 C155 1.425 . S
C150 C157 1.409 . S
C151 H143 0.930 . S
C151 C149 1.419 . S
C151 C152 1.362 . S
C152 H144 0.930 . S
C152 C151 1.362 . S
C152 C155 1.409 . S
C153 H145 0.930 . S
C153 C154 1.355 . S
C153 C155 1.415 . S
C154 C153 1.355 . S
C154 C156 1.419 . S
C155 C150 1.425 . S
C155 C152 1.409 . S
C155 C153 1.415 . S
C156 H146 0.930 . S
C156 C154 1.419 . S
C156 C157 1.362 . S
C157 H147 0.930 . S
C157 C150 1.409 . S
C157 C156 1.362 . S
H158 C164 0.930 . S
H159 C167 0.930 . S
H160 C168 0.930 . S
H161 C169 0.930 . S
H162 C172 0.930 . S
H163 C173 0.930 . S
C164 H158 0.930 . S
C164 C165 1.355 . S
C164 C166 1.415 . S
C165 C164 1.355 . S
C165 C167 1.419 . S
C166 C164 1.415 . S
C166 C171 1.425 . S
C166 C173 1.409 . S
C167 H159 0.930 . S
C167 C165 1.419 . S
C167 C168 1.362 . S
C168 H160 0.930 . S
C168 C167 1.362 . S
C168 C171 1.409 . S
C169 H161 0.930 . S
C169 C170 1.355 . S
C169 C171 1.415 . S
C170 C169 1.355 . S
C170 C172 1.419 . S
C171 C166 1.425 . S
C171 C168 1.409 . S
C171 C169 1.415 . S
C172 H162 0.930 . S
C172 C170 1.419 . S
C172 C173 1.362 . S
C173 H163 0.930 . S
C173 C166 1.409 . S
C173 C172 1.362 . S
H174 C180 0.930 . S
H175 C183 0.930 . S
H176 C184 0.930 . S
H177 C185 0.930 . S
H178 C188 0.930 . S
H179 C189 0.930 . S
C180 H174 0.930 . S
C180 C181 1.355 . S
C180 C182 1.415 . S
C181 C180 1.355 . S
C181 C183 1.419 . S
C182 C180 1.415 . S
C182 C187 1.425 . S
C182 C189 1.409 . S
C183 H175 0.930 . S
C183 C181 1.419 . S
C183 C184 1.362 . S
C184 H176 0.930 . S
C184 C183 1.362 . S
C184 C187 1.409 . S
C185 H177 0.930 . S
C185 C186 1.355 . S
C185 C187 1.415 . S
C186 C185 1.355 . S
C186 C188 1.419 . S
C187 C182 1.425 . S
C187 C184 1.409 . S
C187 C185 1.415 . S
C188 H178 0.930 . S
C188 C186 1.419 . S
C188 C189 1.362 . S
C189 H179 0.930 . S
C189 C182 1.409 . S
C189 C188 1.362 . S
C69 C10 1.123 . S
C74 C41 1.084 . S
C85 C0 1.583 . S
C90 C33 1.585 . S
C101 C18 1.479 . S
C106 C50 1.437 . S
C117 C27 1.582 . S
C122 C51 1.581 . S
C133 C24 1.603 . S
C138 C60 1.615 . S
C154 C61 1.393 . S
C149 C11 1.382 . S
C165 C1 1.615 . S
C170 C32 1.619 . S
C186 C31 1.201 . S
C181 C2 1.167 . S
