# Generated by pormake.
# Topology pts, (4,4)-cn, num edge types: 1
# Building blocks:
#     Node 0, Type 0, BuildingBlock: ESEHIV_clean_sbu_0, # of connection points: 4
#     Node 1, Type 0, BuildingBlock: ESEHIV_clean_sbu_0, # of connection points: 4
#     Node 2, Type 1, BuildingBlock: AZAVOO_clean_sbu_0, # of connection points: 4
#     Node 3, Type 1, BuildingBlock: AZAVOO_clean_sbu_0, # of connection points: 4
#     Edge 4, Type (0, 1), BuildingBlock: CIFDUS_clean_linker_0, # of connection points: 2
#     Edge 5, Type (0, 1), BuildingBlock: CIFDUS_clean_linker_0, # of connection points: 2
#     Edge 6, Type (0, 1), BuildingBlock: CIFDUS_clean_linker_0, # of connection points: 2
#     Edge 7, Type (0, 1), BuildingBlock: CIFDUS_clean_linker_0, # of connection points: 2
#     Edge 8, Type (0, 1), BuildingBlock: CIFDUS_clean_linker_0, # of connection points: 2
#     Edge 9, Type (0, 1), BuildingBlock: CIFDUS_clean_linker_0, # of connection points: 2
#     Edge 10, Type (0, 1), BuildingBlock: CIFDUS_clean_linker_0, # of connection points: 2
#     Edge 11, Type (0, 1), BuildingBlock: CIFDUS_clean_linker_0, # of connection points: 2
# Relax obj value: 0.001
# Max RMSD: 0.095
# Mean RMSD: 0.061
data_MOF--net-pts--node1-ESEHIV_clean_sbu_0--node2-AZAVOO_clean_sbu_0--edge1-CIFDUS_clean_linker_0
_symmetry_space_group_name_H-M    P1
_symmetry_Int_Tables_number       1
_symmetry_cell_setting            triclinic
loop_
_symmetry_equiv_pos_as_xyz
'x, y, z'
_cell_length_a     20.842971
_cell_length_b     22.389048
_cell_length_c     32.676013
_cell_angle_alpha  94.329859
_cell_angle_beta   100.0175
_cell_angle_gamma 89.181469
loop_
_atom_site_label
_atom_site_type_symbol
_atom_site_fract_x
_atom_site_fract_y
_atom_site_fract_z
_atom_type_partial_charge
Cu0 Cu 0.62516 0.09179 0.03109 0.0
N1 N 0.66203 0.04301 0.99241 0.0
N2 N 0.72537 0.02043 0.94481 0.0
C3 C 0.7101 0.06165 0.97381 0.0
C4 C 0.6848 0.97392 0.94495 0.0
C5 C 0.64568 0.98802 0.97446 0.0
O6 O 0.697 0.13515 0.067 0.0
C7 C 0.50675 0.10821 0.98226 0.0
O8 O 0.50183 0.05313 0.99258 0.0
H9 H 0.73202 0.10562 0.98064 0.0
H10 H 0.60728 0.96076 0.98168 0.0
N11 N 0.58394 0.04995 0.06661 0.0
N12 N 0.51637 0.03421 0.11085 0.0
C13 C 0.53694 0.07335 0.08653 0.0
C14 C 0.594 0.99407 0.07887 0.0
C15 C 0.55236 0.98425 0.10631 0.0
C16 C 0.74536 0.10171 0.07978 0.0
O17 O 0.74248 0.04423 0.06822 0.0
H18 H 0.51883 0.11865 0.08355 0.0
H19 H 0.62919 0.9629 0.06875 0.0
O20 O 0.5587 0.13771 0.99696 0.0
H21 H 0.6833 0.93285 0.92508 0.0
H22 H 0.54849 0.94337 0.1214 0.0
Cu23 Cu 0.09225 0.57882 0.53034 0.0
N24 N 0.03631 0.53832 0.55729 0.0
N25 N 1.00553 0.46586 0.59313 0.0
C26 C 0.04697 0.48211 0.56849 0.0
C27 C 0.96694 0.51407 0.59751 0.0
C28 C 0.98608 0.55884 0.57525 0.0
O29 O 0.145 0.51792 0.50663 0.0
C30 C 0.15746 0.62636 0.60915 0.0
O31 O 0.14665 0.57342 0.62136 0.0
H32 H 0.08751 0.45526 0.56099 0.0
H33 H 0.96688 0.60392 0.57388 0.0
N34 N 0.0451 0.62109 0.48815 0.0
N35 N 1.01954 0.69536 0.44641 0.0
C36 C 0.05316 0.67935 0.48304 0.0
C37 C 1.00452 0.59942 0.45377 0.0
C38 C 0.98892 0.64524 0.42773 0.0
C39 C 0.16158 0.51761 0.47091 0.0
O40 O 0.15123 0.56544 0.44973 0.0
H41 H 0.0864 0.70846 0.50453 0.0
H42 H 0.99016 0.55297 0.44719 0.0
O43 O 0.14241 0.63563 0.5707 0.0
H44 H 0.92893 0.51739 0.6163 0.0
H45 H 0.95919 0.6416 0.397 0.0
Mg46 Mg 0.1621 0.06682 0.31614 0.0
O47 O 0.06608 0.09643 0.27556 0.0
O48 O 0.99235 0.10019 0.31801 0.0
Mg49 Mg 0.03655 0.06888 0.38203 0.0
C50 C 1.0083 0.10727 0.28263 0.0
C51 C 0.27803 0.05409 0.27766 0.0
O52 O 0.2831 0.02268 0.31048 0.0
O53 O 0.17358 0.16065 0.35101 0.0
O54 O 0.10248 0.15142 0.39432 0.0
O55 O 0.13823 0.96965 0.29877 0.0
O56 O 0.11042 0.02106 0.35305 0.0
C57 C 0.14699 0.18031 0.38188 0.0
C58 C 0.10929 0.9712 0.33077 0.0
O59 O 0.22732 0.08635 0.26895 0.0
Mg60 Mg 0.07452 0.04132 0.73855 0.0
O61 O 0.16035 0.0715 0.78987 0.0
O62 O 0.24788 0.07898 0.75963 0.0
Mg63 Mg 0.22062 0.04704 0.69044 0.0
C64 C 0.22044 0.08423 0.79175 0.0
C65 C 0.95062 0.02744 0.77164 0.0
O66 O 0.94631 0.99186 0.7374 0.0
O67 O 0.06705 0.13463 0.71237 0.0
O68 O 0.15192 0.12653 0.67863 0.0
O69 O 0.098 0.94437 0.74698 0.0
O70 O 0.13761 0.9974 0.70315 0.0
C71 C 0.10149 0.15427 0.68741 0.0
C72 C 0.1343 0.94688 0.71882 0.0
O73 O 1.00056 0.0609 0.78209 0.0
H74 H 0.51273 0.98763 0.18383 0.0
H75 H 0.4092 0.1046 0.09606 0.0
H76 H 0.32639 0.12313 0.14022 0.0
H77 H 0.28241 0.10471 0.20392 0.0
H78 H 0.38859 0.98788 0.29132 0.0
H79 H 0.47062 0.97079 0.24733 0.0
C80 C 0.47178 0.01677 0.17422 0.0
C81 C 0.46714 0.04449 0.13668 0.0
C82 C 0.42464 0.02747 0.19986 0.0
C83 C 0.41428 0.08307 0.12502 0.0
C84 C 0.36675 0.09353 0.1502 0.0
C85 C 0.32367 0.07582 0.21339 0.0
C86 C 0.32892 0.04763 0.25093 0.0
C87 C 0.37136 0.06596 0.18778 0.0
C88 C 0.38288 0.01024 0.26265 0.0
C89 C 0.43004 1.00023 0.23745 0.0
H90 H 0.05006 0.36027 0.56579 0.0
H91 H 0.96801 0.44723 0.6671 0.0
H92 H 0.9858 0.35632 0.70496 0.0
H93 H 1.03341 0.25382 0.71132 0.0
H94 H 0.12214 0.17327 0.61046 0.0
H95 H 0.09422 0.26014 0.57096 0.0
C96 C 0.03632 0.35966 0.59625 0.0
C97 C 1.00866 0.41084 0.61374 0.0
C98 C 0.04863 0.30833 0.61824 0.0
C99 C 0.98925 0.40842 0.65275 0.0
C100 C 0.99994 0.35656 0.67459 0.0
C101 C 0.04614 0.25539 0.68063 0.0
C102 C 0.08054 0.20741 0.66416 0.0
C103 C 1.0309 0.30651 0.658 0.0
C104 C 0.09669 0.20995 0.62427 0.0
C105 C 0.08048 0.25952 0.60144 0.0
H106 H 0.74761 0.15004 0.15842 0.0
H107 H 0.87055 0.09518 0.06927 0.0
H108 H 0.96647 0.09966 0.12445 0.0
H109 H 1.01196 0.10314 0.19918 0.0
H110 H 0.88694 0.15062 0.28898 0.0
H111 H 0.79593 0.16534 0.23285 0.0
C112 C 0.79586 0.14153 0.15105 0.0
C113 C 0.80253 0.12328 0.10997 0.0
C114 C 0.8503 0.14128 0.18331 0.0
C115 C 0.86477 0.11028 0.10073 0.0
C116 C 0.91943 0.11212 0.13234 0.0
C117 C 0.96518 0.11778 0.20652 0.0
C118 C 0.95632 0.12473 0.24834 0.0
C119 C 0.91236 0.12501 0.17398 0.0
C120 C 0.89516 0.14394 0.25712 0.0
C121 C 0.8429 0.15252 0.22499 0.0
H122 H 0.20062 0.73634 0.59684 0.0
H123 H 0.14392 0.63306 0.69097 0.0
H124 H 0.14108 0.72391 0.73682 0.0
H125 H 0.13712 0.83405 0.74514 0.0
H126 H 0.19364 0.93687 0.65064 0.0
H127 H 0.21525 0.84497 0.61053 0.0
C128 C 0.18907 0.73356 0.62776 0.0
C129 C 0.17131 0.67824 0.64013 0.0
C130 C 0.18682 0.78606 0.65383 0.0
C131 C 0.15742 0.67514 0.68052 0.0
C132 C 0.15534 0.72719 0.70672 0.0
C133 C 0.15568 0.83634 0.71628 0.0
C134 C 0.16251 0.89224 0.70058 0.0
C135 C 0.16728 0.78316 0.69297 0.0
C136 C 0.18737 0.89447 0.66336 0.0
C137 C 0.19942 0.84186 0.64019 0.0
H138 H 0.37796 0.09162 0.97391 0.0
H139 H 0.52378 0.16794 0.91494 0.0
H140 H 0.44437 0.17303 0.85035 0.0
H141 H 0.33871 0.14045 0.80812 0.0
H142 H 0.19372 0.06393 0.86827 0.0
H143 H 0.26735 0.0747 0.93503 0.0
C144 C 0.39167 0.11108 0.94724 0.0
C145 C 0.45643 0.1291 0.9489 0.0
C146 C 0.34626 0.11269 0.91025 0.0
C147 C 0.47395 0.15434 0.9144 0.0
C148 C 0.42877 0.15644 0.87734 0.0
C149 C 0.32288 0.12696 0.83596 0.0
C150 C 0.26118 0.10028 0.83297 0.0
C151 C 0.36562 0.13328 0.87443 0.0
C152 C 0.241 0.08414 0.8695 0.0
C153 C 0.28318 0.09013 0.90774 0.0
H154 H 0.17711 0.41016 0.50433 0.0
H155 H 0.18234 0.49438 0.39044 0.0
H156 H 0.18765 0.39599 0.35312 0.0
H157 H 0.17512 0.28555 0.35108 0.0
H158 H 0.16201 0.20432 0.46491 0.0
H159 H 0.17586 0.30165 0.50392 0.0
C160 C 0.18059 0.40725 0.47149 0.0
C161 C 0.17841 0.45967 0.45017 0.0
C162 C 0.1815 0.35073 0.45003 0.0
C163 C 0.18351 0.45479 0.40766 0.0
C164 C 0.18618 0.39845 0.3862 0.0
C165 C 0.17688 0.28927 0.38454 0.0
C166 C 0.16708 0.23807 0.40509 0.0
C167 C 0.18287 0.346 0.40675 0.0
C168 C 0.16884 0.24331 0.4484 0.0
C169 C 0.17671 0.29893 0.47074 0.0
H170 H 0.72039 0.97278 0.86607 0.0
H171 H 0.83769 0.08346 0.9638 0.0
H172 H 0.91677 0.0981 0.91838 0.0
H173 H 0.95347 0.07844 0.85082 0.0
H174 H 0.83571 0.96698 0.75342 0.0
H175 H 0.75636 0.95384 0.79859 0.0
C176 C 0.76356 0.9996 0.87752 0.0
C177 C 0.77302 0.02693 0.91826 0.0
C178 C 0.80876 0.00803 0.85115 0.0
C179 C 0.82882 0.0624 0.93242 0.0
C180 C 0.8742 0.07068 0.90648 0.0
C181 C 0.9102 0.05169 0.83938 0.0
C182 C 0.90076 0.0238 0.79873 0.0
C183 C 0.86465 0.04383 0.86571 0.0
C184 C 0.84446 0.98899 0.78455 0.0
C185 C 0.79896 0.98126 0.81041 0.0
H186 H 1.02652 0.71335 0.36679 0.0
H187 H 1.0243 0.80423 0.48753 0.0
H188 H 0.04472 0.89994 0.46068 0.0
H189 H 0.07282 0.95576 0.40478 0.0
H190 H 0.08269 0.86424 0.28501 0.0
H191 H 0.04865 0.77086 0.30923 0.0
C192 C 1.02921 0.75437 0.38687 0.0
C193 C 1.02398 0.75199 0.42905 0.0
C194 C 0.04268 0.80891 0.37143 0.0
C195 C 1.02865 0.80518 0.45505 0.0
C196 C 0.04026 0.85976 0.4397 0.0
C197 C 0.06641 0.91568 0.38369 0.0
C198 C 0.0803 0.91692 0.34316 0.0
C199 C 0.04879 0.86193 0.39821 0.0
C200 C 0.07241 0.86441 0.31639 0.0
C201 C 0.05313 0.81098 0.33026 0.0
loop_
_geom_bond_atom_site_label_1
_geom_bond_atom_site_label_2
_geom_bond_distance
_geom_bond_site_symmetry_2
_ccdc_geom_bond_type
Cu0 N1 1.999 1_554 S
Cu0 O6 1.974 . S
Cu0 N11 1.985 . S
Cu0 O20 1.959 1_554 S
N1 Cu0 1.999 1_556 S
N1 C3 1.263 . S
N1 C5 1.389 . S
N2 C3 1.358 . S
N2 C4 1.400 . S
C3 N1 1.263 . S
C3 N2 1.358 . S
C3 H9 0.930 . S
C4 N2 1.400 . S
C4 C5 1.351 . S
C4 H21 0.930 . S
C5 N1 1.389 . S
C5 C4 1.351 . S
C5 H10 0.930 . S
O6 Cu0 1.974 . S
O6 C16 1.282 . S
C7 O8 1.261 1_545 S
C7 O20 1.251 . S
O8 C7 1.261 1_565 S
H9 C3 0.930 . S
H10 C5 0.930 . S
N11 Cu0 1.985 . S
N11 C13 1.335 . S
N11 C14 1.390 . S
N12 C13 1.345 . S
N12 C15 1.336 . S
C13 N11 1.335 . S
C13 N12 1.345 . S
C13 H18 0.930 . S
C14 N11 1.390 . S
C14 C15 1.346 . S
C14 H19 0.930 . S
C15 N12 1.336 . S
C15 C14 1.346 . S
C15 H22 0.929 . S
C16 O6 1.282 . S
C16 O17 1.216 1_545 S
O17 C16 1.216 1_565 S
H18 C13 0.930 . S
H19 C14 0.930 . S
O20 Cu0 1.959 1_556 S
O20 C7 1.251 . S
H21 C4 0.930 . S
H22 C15 0.929 . S
Cu23 N24 1.999 . S
Cu23 O29 1.974 . S
Cu23 N34 1.985 . S
Cu23 O43 1.959 . S
N24 Cu23 1.999 . S
N24 C26 1.263 . S
N24 C28 1.389 . S
N25 C26 1.358 . S
N25 C27 1.400 . S
C26 N24 1.263 . S
C26 N25 1.358 . S
C26 H32 0.930 . S
C27 N25 1.400 . S
C27 C28 1.351 . S
C27 H44 0.930 1_455 S
C28 N24 1.389 . S
C28 C27 1.351 . S
C28 H33 0.930 1_455 S
O29 Cu23 1.974 . S
O29 C39 1.282 . S
C30 O31 1.261 . S
C30 O43 1.251 . S
O31 C30 1.261 . S
H32 C26 0.930 . S
H33 C28 0.930 1_655 S
N34 Cu23 1.985 . S
N34 C36 1.335 . S
N34 C37 1.390 . S
N35 C36 1.345 . S
N35 C38 1.336 . S
C36 N34 1.335 . S
C36 N35 1.345 . S
C36 H41 0.930 . S
C37 N34 1.390 . S
C37 C38 1.346 . S
C37 H42 0.930 . S
C38 N35 1.336 . S
C38 C37 1.346 . S
C38 H45 0.929 . S
C39 O29 1.282 . S
C39 O40 1.216 . S
O40 C39 1.216 . S
H41 C36 0.930 . S
H42 C37 0.930 . S
O43 Cu23 1.959 . S
O43 C30 1.251 . S
H44 C27 0.930 1_655 S
H45 C38 0.929 . S
Mg46 O47 2.028 . S
Mg46 O53 1.986 . S
Mg46 O55 2.114 1_545 S
Mg46 O56 2.251 . S
Mg46 O59 2.010 . S
O47 Mg46 2.028 . S
O47 C50 1.250 1_455 S
O48 Mg49 2.028 . S
O48 C50 1.248 . S
Mg49 O48 2.028 . S
Mg49 O54 2.032 1_655 S
Mg49 O56 2.079 1_655 S
C50 O47 1.250 1_655 S
C50 O48 1.248 . S
C51 O52 1.264 . S
C51 O59 1.249 . S
O52 C51 1.264 . S
O53 Mg46 1.986 . S
O53 C57 1.246 . S
O54 Mg49 2.032 1_455 S
O54 C57 1.259 . S
O55 Mg46 2.114 1_565 S
O55 C58 1.252 . S
O56 Mg46 2.251 . S
O56 Mg49 2.079 1_455 S
O56 C58 1.273 1_545 S
C57 O53 1.246 . S
C57 O54 1.259 . S
C58 O55 1.252 . S
C58 O56 1.273 1_565 S
O59 Mg46 2.010 . S
O59 C51 1.249 . S
Mg60 O61 2.028 . S
Mg60 O67 1.986 . S
Mg60 O69 2.114 1_545 S
Mg60 O70 2.252 . S
Mg60 O73 2.010 1_455 S
O61 Mg60 2.028 . S
O61 C64 1.250 . S
O62 Mg63 2.028 . S
O62 C64 1.248 . S
Mg63 O62 2.028 . S
Mg63 O68 2.032 . S
Mg63 O70 2.080 . S
C64 O61 1.250 . S
C64 O62 1.248 . S
C65 O66 1.264 . S
C65 O73 1.249 . S
O66 C65 1.264 . S
O67 Mg60 1.986 . S
O67 C71 1.246 . S
O68 Mg63 2.032 . S
O68 C71 1.259 . S
O69 Mg60 2.114 1_565 S
O69 C72 1.252 . S
O70 Mg60 2.252 . S
O70 Mg63 2.080 . S
O70 C72 1.271 1_545 S
C71 O67 1.246 . S
C71 O68 1.259 . S
C72 O69 1.252 . S
C72 O70 1.271 1_565 S
O73 Mg60 2.010 1_655 S
O73 C65 1.249 . S
H74 C80 0.930 . S
H75 C83 0.930 . S
H76 C84 0.930 . S
H77 C85 0.930 . S
H78 C88 0.930 . S
H79 C89 0.930 . S
C80 H74 0.930 . S
C80 C81 1.355 . S
C80 C82 1.415 . S
C81 C80 1.355 . S
C81 C83 1.419 . S
C82 C80 1.415 . S
C82 C87 1.425 . S
C82 C89 1.409 . S
C83 H75 0.930 . S
C83 C81 1.419 . S
C83 C84 1.362 . S
C84 H76 0.930 . S
C84 C83 1.362 . S
C84 C87 1.409 . S
C85 H77 0.930 . S
C85 C86 1.355 . S
C85 C87 1.415 . S
C86 C85 1.355 . S
C86 C88 1.419 . S
C87 C82 1.425 . S
C87 C84 1.409 . S
C87 C85 1.415 . S
C88 H78 0.930 . S
C88 C86 1.419 . S
C88 C89 1.362 . S
C89 H79 0.930 . S
C89 C82 1.409 . S
C89 C88 1.362 . S
H90 C96 0.930 . S
H91 C99 0.930 . S
H92 C100 0.930 . S
H93 C101 0.930 . S
H94 C104 0.930 . S
H95 C105 0.930 . S
C96 H90 0.930 . S
C96 C97 1.355 . S
C96 C98 1.415 . S
C97 C96 1.355 . S
C97 C99 1.419 . S
C98 C96 1.415 . S
C98 C103 1.425 . S
C98 C105 1.409 . S
C99 H91 0.930 . S
C99 C97 1.419 . S
C99 C100 1.362 . S
C100 H92 0.930 . S
C100 C99 1.362 . S
C100 C103 1.409 . S
C101 H93 0.930 . S
C101 C102 1.355 . S
C101 C103 1.415 . S
C102 C101 1.355 . S
C102 C104 1.419 . S
C103 C98 1.425 . S
C103 C100 1.409 . S
C103 C101 1.415 . S
C104 H94 0.930 . S
C104 C102 1.419 . S
C104 C105 1.362 . S
C105 H95 0.930 . S
C105 C98 1.409 . S
C105 C104 1.362 . S
H106 C112 0.930 . S
H107 C115 0.930 . S
H108 C116 0.930 . S
H109 C117 0.930 1_565 S
H110 C120 0.930 . S
H111 C121 0.930 . S
C112 H106 0.930 . S
C112 C113 1.355 . S
C112 C114 1.415 . S
C113 C112 1.355 . S
C113 C115 1.419 1_545 S
C114 C112 1.415 . S
C114 C119 1.425 . S
C114 C121 1.409 . S
C115 H107 0.930 . S
C115 C113 1.419 1_565 S
C115 C116 1.362 . S
C116 H108 0.930 . S
C116 C115 1.362 . S
C116 C119 1.409 1_565 S
C117 H109 0.930 1_545 S
C117 C118 1.355 . S
C117 C119 1.415 . S
C118 C117 1.355 . S
C118 C120 1.419 . S
C119 C114 1.425 . S
C119 C116 1.409 1_545 S
C119 C117 1.415 . S
C120 H110 0.930 . S
C120 C118 1.419 . S
C120 C121 1.362 . S
C121 H111 0.930 . S
C121 C114 1.409 . S
C121 C120 1.362 . S
H122 C128 0.930 . S
H123 C131 0.930 . S
H124 C132 0.930 . S
H125 C133 0.930 . S
H126 C136 0.930 1_655 S
H127 C137 0.930 1_655 S
C128 H122 0.930 . S
C128 C129 1.355 . S
C128 C130 1.415 . S
C129 C128 1.355 . S
C129 C131 1.419 . S
C130 C128 1.415 . S
C130 C135 1.425 . S
C130 C137 1.409 . S
C131 H123 0.930 . S
C131 C129 1.419 . S
C131 C132 1.362 . S
C132 H124 0.930 . S
C132 C131 1.362 . S
C132 C135 1.409 . S
C133 H125 0.930 . S
C133 C134 1.355 . S
C133 C135 1.415 . S
C134 C133 1.355 . S
C134 C136 1.419 . S
C135 C130 1.425 . S
C135 C132 1.409 . S
C135 C133 1.415 . S
C136 H126 0.930 1_455 S
C136 C134 1.419 . S
C136 C137 1.362 . S
C137 H127 0.930 1_455 S
C137 C130 1.409 . S
C137 C136 1.362 . S
H138 C144 0.930 . S
H139 C147 0.930 . S
H140 C148 0.930 . S
H141 C149 0.930 . S
H142 C152 0.930 . S
H143 C153 0.930 . S
C144 H138 0.930 . S
C144 C145 1.355 . S
C144 C146 1.415 . S
C145 C144 1.355 . S
C145 C147 1.419 . S
C146 C144 1.415 . S
C146 C151 1.425 . S
C146 C153 1.409 . S
C147 H139 0.930 . S
C147 C145 1.419 . S
C147 C148 1.362 . S
C148 H140 0.930 . S
C148 C147 1.362 . S
C148 C151 1.409 . S
C149 H141 0.930 . S
C149 C150 1.355 . S
C149 C151 1.415 . S
C150 C149 1.355 . S
C150 C152 1.419 . S
C151 C146 1.425 . S
C151 C148 1.409 . S
C151 C149 1.415 . S
C152 H142 0.930 . S
C152 C150 1.419 . S
C152 C153 1.362 . S
C153 H143 0.930 . S
C153 C146 1.409 . S
C153 C152 1.362 . S
H154 C160 0.930 . S
H155 C163 0.930 . S
H156 C164 0.930 . S
H157 C165 0.930 . S
H158 C168 0.930 1_655 S
H159 C169 0.930 1_655 S
C160 H154 0.930 . S
C160 C161 1.355 . S
C160 C162 1.415 . S
C161 C160 1.355 . S
C161 C163 1.419 . S
C162 C160 1.415 . S
C162 C167 1.425 . S
C162 C169 1.409 . S
C163 H155 0.930 . S
C163 C161 1.419 . S
C163 C164 1.362 . S
C164 H156 0.930 . S
C164 C163 1.362 . S
C164 C167 1.409 . S
C165 H157 0.930 . S
C165 C166 1.355 . S
C165 C167 1.415 . S
C166 C165 1.355 . S
C166 C168 1.419 . S
C167 C162 1.425 . S
C167 C164 1.409 . S
C167 C165 1.415 . S
C168 H158 0.930 1_455 S
C168 C166 1.419 . S
C168 C169 1.362 . S
C169 H159 0.930 1_455 S
C169 C162 1.409 . S
C169 C168 1.362 . S
H170 C176 0.930 . S
H171 C179 0.930 . S
H172 C180 0.930 . S
H173 C181 0.930 . S
H174 C184 0.930 . S
H175 C185 0.930 . S
C176 H170 0.930 . S
C176 C177 1.355 . S
C176 C178 1.415 . S
C177 C176 1.355 . S
C177 C179 1.419 . S
C178 C176 1.415 . S
C178 C183 1.425 . S
C178 C185 1.409 . S
C179 H171 0.930 . S
C179 C177 1.419 . S
C179 C180 1.362 . S
C180 H172 0.930 . S
C180 C179 1.362 . S
C180 C183 1.409 . S
C181 H173 0.930 . S
C181 C182 1.355 . S
C181 C183 1.415 . S
C182 C181 1.355 . S
C182 C184 1.419 . S
C183 C178 1.425 . S
C183 C180 1.409 . S
C183 C181 1.415 . S
C184 H174 0.930 . S
C184 C182 1.419 . S
C184 C185 1.362 . S
C185 H175 0.930 . S
C185 C178 1.409 . S
C185 C184 1.362 . S
H186 C192 0.930 . S
H187 C195 0.930 . S
H188 C196 0.930 . S
H189 C197 0.930 1_655 S
H190 C200 0.930 . S
H191 C201 0.930 . S
C192 H186 0.930 . S
C192 C193 1.355 . S
C192 C194 1.415 . S
C193 C192 1.355 . S
C193 C195 1.419 1_455 S
C194 C192 1.415 . S
C194 C199 1.425 . S
C194 C201 1.409 . S
C195 H187 0.930 . S
C195 C193 1.419 1_655 S
C195 C196 1.362 . S
C196 H188 0.930 . S
C196 C195 1.362 . S
C196 C199 1.409 1_655 S
C197 H189 0.930 1_455 S
C197 C198 1.355 . S
C197 C199 1.415 . S
C198 C197 1.355 . S
C198 C200 1.419 . S
C199 C194 1.425 . S
C199 C196 1.409 1_455 S
C199 C197 1.415 . S
C200 H190 0.930 . S
C200 C198 1.419 . S
C200 C201 1.362 . S
C201 H191 0.930 . S
C201 C194 1.409 . S
C201 C200 1.362 . S
C86 C51 1.167 . S
C81 N12 1.461 . S
C102 C71 1.463 . S
C97 N25 1.451 . S
C118 C50 1.419 . S
C113 C16 1.472 . S
C134 C72 1.512 . S
C129 C30 1.512 . S
C150 C64 1.503 . S
C145 C7 1.510 . S
C166 C57 1.419 . S
C161 C39 1.445 . S
C182 C65 1.188 . S
C177 N2 1.485 . S
C193 N35 1.469 . S
C198 C58 1.482 . S
