# Generated by pormake.
# Topology sit, (3,6)-cn, num edge types: 1
# Building blocks:
#     Node 0, Type 0, BuildingBlock: OLANEW_clean_sbu_2, # of connection points: 3
#     Node 1, Type 0, BuildingBlock: OLANEW_clean_sbu_2, # of connection points: 3
#     Node 2, Type 0, BuildingBlock: OLANEW_clean_sbu_2, # of connection points: 3
#     Node 3, Type 0, BuildingBlock: OLANEW_clean_sbu_2, # of connection points: 3
#     Node 4, Type 1, BuildingBlock: MIDCAF_clean_sbu_0, # of connection points: 6
#     Node 5, Type 1, BuildingBlock: MIDCAF_clean_sbu_0, # of connection points: 6
#     Edge 6, Type (0, 1), None
#     Edge 7, Type (0, 1), None
#     Edge 8, Type (0, 1), None
#     Edge 9, Type (0, 1), None
#     Edge 10, Type (0, 1), None
#     Edge 11, Type (0, 1), None
#     Edge 12, Type (0, 1), None
#     Edge 13, Type (0, 1), None
#     Edge 14, Type (0, 1), None
#     Edge 15, Type (0, 1), None
#     Edge 16, Type (0, 1), None
#     Edge 17, Type (0, 1), None
# Relax obj value: 0.082
# Max RMSD: 0.190
# Mean RMSD: 0.098
data_MOF--net-sit--node1-OLANEW_clean_sbu_2--node2-MIDCAF_clean_sbu_0--edge1-none
_symmetry_space_group_name_H-M    P1
_symmetry_Int_Tables_number       1
_symmetry_cell_setting            triclinic
loop_
_symmetry_equiv_pos_as_xyz
'x, y, z'
_cell_length_a     10.893366
_cell_length_b     12.499907
_cell_length_c     25.431827
_cell_angle_alpha  89.819698
_cell_angle_beta   68.30497
_cell_angle_gamma 83.929987
loop_
_atom_site_label
_atom_site_type_symbol
_atom_site_fract_x
_atom_site_fract_y
_atom_site_fract_z
_atom_type_partial_charge
O0 O 0.32492 0.42696 -0.06447 0.0
Cd1 Cd 0.12865 0.33601 -0.01186 0.0
O2 O 0.19914 0.55859 -0.08232 0.0
Cd3 Cd 0.1424 0.67845 0.8665 0.0
O4 O 0.98828 0.68996 0.83111 0.0
C5 C 0.98927 0.60722 0.80218 0.0
O6 O 0.08187 0.52625 0.79514 0.0
C7 C 0.31457 0.51341 -0.08983 0.0
C8 C 0.0859 0.31755 0.10209 0.0
O9 O 0.1531 0.24032 0.06693 0.0
O10 O 0.04065 0.40172 0.08324 0.0
O11 O 0.23848 0.82156 -0.04237 0.0
Cd12 Cd 0.04142 0.88143 0.04139 0.0
O13 O 0.11955 0.914 -0.08309 0.0
Cd14 Cd 0.06986 0.97846 0.84647 0.0
O15 O 0.90505 0.9792 0.8173 0.0
C16 C 0.90986 0.90653 0.78165 0.0
O17 O 1.02096 0.84365 0.75652 0.0
C18 C 0.22635 0.85668 -0.08717 0.0
C19 C 0.09993 0.9722 0.12806 0.0
O20 O 0.06685 1.03415 0.09418 0.0
O21 O 0.1056 0.87024 0.12041 0.0
O22 O 0.82493 0.92695 0.43553 0.0
Cd23 Cd 0.62867 0.83599 0.48814 0.0
O24 O 0.69915 1.05858 0.41768 0.0
Cd25 Cd 0.6424 0.17844 0.3665 0.0
O26 O 0.48828 0.18996 0.33112 0.0
C27 C 0.48928 1.10722 0.30218 0.0
O28 O 0.58188 1.02624 0.29514 0.0
C29 C 0.81457 1.0134 0.41017 0.0
C30 C 0.58591 0.81753 0.60209 0.0
O31 O 0.6531 0.7403 0.56693 0.0
O32 O 0.54065 0.90171 0.58323 0.0
O33 O 0.73849 0.32155 0.45764 0.0
Cd34 Cd 0.54143 0.38141 0.54139 0.0
O35 O 0.61955 0.41399 0.41692 0.0
Cd36 Cd 0.56986 0.47845 0.34648 0.0
O37 O 0.40505 0.4792 0.31731 0.0
C38 C 0.40985 0.40653 0.28166 0.0
O39 O 0.52096 0.34365 0.25653 0.0
C40 C 0.72635 0.35666 0.41283 0.0
C41 C 0.59993 0.47219 0.62806 0.0
O42 O 0.56685 0.53414 0.59418 0.0
O43 O 0.6056 0.37023 0.62041 0.0
Zn44 Zn 0.03995 0.41257 0.26623 0.0
Zn45 Zn 0.17875 0.99899 0.27467 0.0
Zn46 Zn 0.10069 0.19834 0.27004 0.0
C47 C 0.12495 1.01359 0.17669 0.0
C48 C 0.93384 1.04391 0.36465 0.0
O49 O 0.26481 0.28321 0.27366 0.0
O50 O 0.19977 0.4582 0.27717 0.0
C51 C 0.07117 0.31644 0.16167 0.0
O52 O 0.10113 1.1143 0.19232 0.0
O53 O 0.16306 0.94513 0.20551 0.0
O54 O 1.03173 0.97233 0.34556 0.0
O55 O 0.93786 1.1367 0.34206 0.0
O56 O 0.04196 0.40598 0.18861 0.0
O57 O 0.09402 0.2289 0.18519 0.0
O58 O 0.9142 0.25329 0.34302 0.0
O59 O 0.86745 0.42629 0.33022 0.0
C60 C 0.83904 0.3435 0.35871 0.0
O61 O 0.29228 1.17316 0.28504 0.0
O62 O 0.356 0.998 0.27753 0.0
C63 C 0.28695 0.38212 0.27588 0.0
C64 C 0.37592 1.09263 0.28613 0.0
Zn65 Zn 0.53995 0.91257 0.76623 0.0
Zn66 Zn 0.67874 0.49899 0.77467 0.0
Zn67 Zn 0.60069 0.69834 0.77004 0.0
C68 C 0.62495 0.51358 0.6767 0.0
C69 C 0.43383 0.54392 0.86466 0.0
O70 O 0.76481 0.78321 0.77366 0.0
O71 O 0.69977 0.95821 0.77716 0.0
C72 C 0.57117 0.81643 0.66167 0.0
O73 O 0.60113 0.61429 0.69232 0.0
O74 O 0.66306 0.44513 0.70551 0.0
O75 O 0.53173 0.47234 0.84557 0.0
O76 O 0.43786 0.6367 0.84206 0.0
O77 O 0.54197 0.90597 0.6886 0.0
O78 O 0.59403 0.7289 0.68519 0.0
O79 O 0.4142 0.7533 0.84302 0.0
O80 O 0.36745 0.92629 0.83021 0.0
C81 C 0.33905 0.84351 0.85871 0.0
O82 O 0.79228 0.67316 0.78504 0.0
O83 O 0.856 0.49801 0.77753 0.0
C84 C 0.78695 0.88212 0.77587 0.0
C85 C 0.87592 0.59263 0.78613 0.0
loop_
_geom_bond_atom_site_label_1
_geom_bond_atom_site_label_2
_geom_bond_distance
_geom_bond_site_symmetry_2
_ccdc_geom_bond_type
O0 Cd1 2.300 . S
O0 C7 1.275 1_554 S
Cd1 O0 2.300 . S
Cd1 O9 2.381 . S
Cd1 O10 2.378 . S
O2 Cd3 2.385 . S
O2 C7 1.255 1_554 S
Cd3 O2 2.385 . S
Cd3 O4 2.317 1_455 S
O4 Cd3 2.317 1_655 S
O4 C5 1.232 1_554 S
C5 O4 1.232 1_556 S
C5 O6 1.218 . S
O6 C5 1.218 . S
C7 O0 1.275 1_556 S
C7 O2 1.255 1_556 S
C8 O9 1.258 . S
C8 O10 1.256 . S
O9 Cd1 2.381 . S
O9 C8 1.258 . S
O10 Cd1 2.378 . S
O10 C8 1.256 . S
O11 Cd12 2.300 . S
O11 C18 1.275 1_554 S
Cd12 O11 2.300 . S
Cd12 O20 2.381 . S
Cd12 O21 2.378 1_455 S
O13 Cd14 2.385 1_455 S
O13 C18 1.255 . S
Cd14 O13 2.385 1_655 S
Cd14 O15 2.317 . S
O15 Cd14 2.317 . S
O15 C16 1.232 . S
C16 O15 1.232 . S
C16 O17 1.218 . S
O17 C16 1.218 . S
C18 O11 1.275 1_556 S
C18 O13 1.255 . S
C19 O20 1.258 . S
C19 O21 1.256 1_455 S
O20 Cd12 2.381 . S
O20 C19 1.258 . S
O21 Cd12 2.378 1_655 S
O21 C19 1.256 1_655 S
O22 Cd23 2.300 . S
O22 C29 1.275 . S
Cd23 O22 2.300 . S
Cd23 O31 2.381 . S
Cd23 O32 2.378 . S
O24 Cd25 2.385 . S
O24 C29 1.255 . S
Cd25 O24 2.385 . S
Cd25 O26 2.317 . S
O26 Cd25 2.317 . S
O26 C27 1.232 . S
C27 O26 1.232 . S
C27 O28 1.218 . S
O28 C27 1.218 . S
C29 O22 1.275 . S
C29 O24 1.255 . S
C30 O31 1.258 . S
C30 O32 1.256 . S
O31 Cd23 2.381 . S
O31 C30 1.258 . S
O32 Cd23 2.378 . S
O32 C30 1.256 . S
O33 Cd34 2.300 . S
O33 C40 1.275 . S
Cd34 O33 2.300 . S
Cd34 O42 2.381 . S
Cd34 O43 2.378 . S
O35 Cd36 2.385 . S
O35 C40 1.255 . S
Cd36 O35 2.385 . S
Cd36 O37 2.317 . S
O37 Cd36 2.317 . S
O37 C38 1.232 . S
C38 O37 1.232 . S
C38 O39 1.218 . S
O39 C38 1.218 . S
C40 O33 1.275 . S
C40 O35 1.255 . S
C41 O42 1.258 . S
C41 O43 1.256 . S
O42 Cd34 2.381 . S
O42 C41 1.258 . S
O43 Cd34 2.378 . S
O43 C41 1.256 . S
Zn44 O50 1.920 . S
Zn44 O56 1.898 . S
Zn44 O59 1.905 1_455 S
Zn45 O53 1.905 . S
Zn45 O54 1.898 1_455 S
Zn45 O62 1.920 . S
Zn46 O49 2.080 . S
Zn46 O52 2.114 1_445 S
Zn46 O55 2.120 1_445 S
Zn46 O57 2.120 . S
Zn46 O58 2.114 1_455 S
Zn46 O61 2.080 1_545 S
C47 O52 1.166 1_455 S
C47 O53 1.182 . S
C48 O54 1.167 . S
C48 O55 1.299 . S
O49 Zn46 2.080 . S
O49 C63 1.305 . S
O50 Zn44 1.920 . S
O50 C63 1.234 . S
C51 O56 1.167 . S
C51 O57 1.299 . S
O52 Zn46 2.114 1_665 S
O52 C47 1.166 1_655 S
O53 Zn45 1.905 . S
O53 C47 1.182 . S
O54 Zn45 1.898 1_655 S
O54 C48 1.167 . S
O55 Zn46 2.120 1_665 S
O55 C48 1.299 . S
O56 Zn44 1.898 . S
O56 C51 1.167 . S
O57 Zn46 2.120 . S
O57 C51 1.299 . S
O58 Zn46 2.114 1_655 S
O58 C60 1.166 . S
O59 Zn44 1.905 1_655 S
O59 C60 1.182 . S
C60 O58 1.166 . S
C60 O59 1.182 . S
O61 Zn46 2.080 1_565 S
O61 C64 1.305 . S
O62 Zn45 1.920 . S
O62 C64 1.234 . S
C63 O49 1.305 . S
C63 O50 1.234 . S
C64 O61 1.305 . S
C64 O62 1.234 . S
Zn65 O71 1.920 . S
Zn65 O77 1.898 . S
Zn65 O80 1.905 . S
Zn66 O74 1.905 . S
Zn66 O75 1.898 . S
Zn66 O83 1.920 . S
Zn67 O70 2.080 . S
Zn67 O73 2.114 . S
Zn67 O76 2.120 . S
Zn67 O78 2.120 . S
Zn67 O79 2.114 . S
Zn67 O82 2.080 . S
C68 O73 1.166 . S
C68 O74 1.182 . S
C69 O75 1.167 . S
C69 O76 1.299 . S
O70 Zn67 2.080 . S
O70 C84 1.305 . S
O71 Zn65 1.920 . S
O71 C84 1.234 . S
C72 O77 1.167 . S
C72 O78 1.299 . S
O73 Zn67 2.114 . S
O73 C68 1.166 . S
O74 Zn66 1.905 . S
O74 C68 1.182 . S
O75 Zn66 1.898 . S
O75 C69 1.167 . S
O76 Zn67 2.120 . S
O76 C69 1.299 . S
O77 Zn65 1.898 . S
O77 C72 1.167 . S
O78 Zn67 2.120 . S
O78 C72 1.299 . S
O79 Zn67 2.114 . S
O79 C81 1.166 . S
O80 Zn65 1.905 . S
O80 C81 1.182 . S
C81 O79 1.166 . S
C81 O80 1.182 . S
O82 Zn67 2.080 . S
O82 C85 1.305 . S
O83 Zn66 1.920 . S
O83 C85 1.234 . S
C84 O70 1.305 . S
C84 O71 1.234 . S
C85 O82 1.305 . S
C85 O83 1.234 . S
C51 C8 1.648 . S
C47 C19 1.631 . S
C72 C30 1.648 . S
C41 C68 1.631 . S
C7 C69 1.041 . S
C84 C16 1.405 . S
C5 C85 1.653 . S
C81 C18 1.600 . S
C48 C29 1.041 . S
C38 C63 1.405 . S
C64 C27 1.653 . S
C60 C40 1.600 . S
