# Generated by pormake.
# Topology bcu-b, (8,8)-cn, num edge types: 1
# Building blocks:
#     Node 0, Type 0, BuildingBlock: TAGTUT_clean_sbu_3, # of connection points: 8
#     Node 1, Type 1, BuildingBlock: TAGTUT_clean_sbu_3, # of connection points: 8
#     Edge 2, Type (0, 1), BuildingBlock: KIFKEQ_clean_linker_1, # of connection points: 2
#     Edge 3, Type (0, 1), BuildingBlock: KIFKEQ_clean_linker_1, # of connection points: 2
#     Edge 4, Type (0, 1), BuildingBlock: KIFKEQ_clean_linker_1, # of connection points: 2
#     Edge 5, Type (0, 1), BuildingBlock: KIFKEQ_clean_linker_1, # of connection points: 2
#     Edge 6, Type (0, 1), BuildingBlock: KIFKEQ_clean_linker_1, # of connection points: 2
#     Edge 7, Type (0, 1), BuildingBlock: KIFKEQ_clean_linker_1, # of connection points: 2
#     Edge 8, Type (0, 1), BuildingBlock: KIFKEQ_clean_linker_1, # of connection points: 2
#     Edge 9, Type (0, 1), BuildingBlock: KIFKEQ_clean_linker_1, # of connection points: 2
# Relax obj value: 0.012
# Max RMSD: 0.062
# Mean RMSD: 0.062
data_MOF--net-bcu-b--node1-TAGTUT_clean_sbu_3--node2-TAGTUT_clean_sbu_3--edge1-KIFKEQ_clean_linker_1
_symmetry_space_group_name_H-M    P1
_symmetry_Int_Tables_number       1
_symmetry_cell_setting            triclinic
loop_
_symmetry_equiv_pos_as_xyz
'x, y, z'
_cell_length_a     19.508208
_cell_length_b     19.555164
_cell_length_c     22.648988
_cell_angle_alpha  89.354698
_cell_angle_beta   90.72444
_cell_angle_gamma 106.35849
loop_
_atom_site_label
_atom_site_type_symbol
_atom_site_fract_x
_atom_site_fract_y
_atom_site_fract_z
_atom_type_partial_charge
C0 C 0.13311 0.10083 0.03761 0.0
C1 C 0.20385 0.86913 0.02697 0.0
C2 C 0.11532 0.84648 0.85002 0.0
Mg3 Mg 1.00539 0.15194 -0.02301 0.0
Mg4 Mg 0.85177 0.03788 0.94412 0.0
O5 O 0.95051 0.06188 0.9367 0.0
Mg6 Mg 1.00819 0.99544 -0.04223 0.0
O7 O 0.0752 0.93837 -0.02113 0.0
Mg8 Mg 0.16524 0.99326 0.93848 0.0
Mg9 Mg 0.05145 0.83986 -0.02851 0.0
C10 C 0.87006 0.90017 0.88005 0.0
O11 O 0.9288 0.92556 0.02631 0.0
O12 O 0.94063 0.21007 0.91634 0.0
O13 O 0.94922 0.81829 0.01358 0.0
O14 O 0.92087 0.14045 0.05087 0.0
O15 O 0.83868 0.1263 0.8933 0.0
O16 O 0.82321 0.05133 0.03303 0.0
O17 O 0.09278 0.0532 0.88903 0.0
O18 O 0.08686 0.16395 0.90447 0.0
C19 C 0.113 0.12018 0.87758 0.0
C20 C 0.8805 0.18964 0.88844 0.0
O21 O 0.93823 0.91583 0.88948 0.0
O22 O 0.22401 0.92918 -0.00079 0.0
O23 O 0.83049 0.93565 0.9023 0.0
O24 O 0.15376 0.90864 0.86472 0.0
O25 O 0.14047 0.82717 0.02206 0.0
O26 O 0.06449 0.81123 0.88255 0.0
O27 O 0.06598 0.08001 0.02621 0.0
O28 O 0.17724 0.07495 0.01085 0.0
C29 C 0.85861 0.10211 0.06556 0.0
C30 C 0.9135 0.8576 0.03587 0.0
C31 C 0.63413 0.59949 0.53756 0.0
C32 C 0.70437 0.36805 0.52302 0.0
C33 C 0.61352 0.34765 0.34692 0.0
Mg34 Mg 0.5061 0.65185 0.47896 0.0
Mg35 Mg 0.35184 0.53873 0.44619 0.0
O36 O 0.45048 0.56245 0.43816 0.0
Mg37 Mg 0.50813 0.4955 0.45772 0.0
O38 O 0.57521 0.43799 0.4773 0.0
Mg39 Mg 0.66481 0.49333 0.43654 0.0
Mg40 Mg 0.55125 0.33957 0.4691 0.0
C41 C 0.36901 0.40189 0.38002 0.0
O42 O 0.42955 0.42481 0.52639 0.0
O43 O 0.44106 0.71117 0.41981 0.0
O44 O 0.44969 0.31764 0.51238 0.0
O45 O 0.42237 0.63949 0.55362 0.0
O46 O 0.33861 0.62813 0.39676 0.0
O47 O 0.32439 0.55079 0.53562 0.0
O48 O 0.5919 0.55401 0.38872 0.0
O49 O 0.58666 0.66468 0.40559 0.0
C50 C 0.61217 0.6211 0.37779 0.0
C51 C 0.38063 0.69142 0.3923 0.0
O52 O 0.43721 0.41707 0.38918 0.0
O53 O 0.72419 0.42843 0.49574 0.0
O54 O 0.32979 0.43722 0.40306 0.0
O55 O 0.65224 0.40959 0.36189 0.0
O56 O 0.64092 0.32617 0.51839 0.0
O57 O 0.56304 0.31208 0.37963 0.0
O58 O 0.56689 0.57897 0.52658 0.0
O59 O 0.6779 0.57404 0.50989 0.0
C60 C 0.36021 0.60103 0.56846 0.0
C61 C 0.41438 0.35679 0.53554 0.0
H62 H 0.26249 0.1984 0.04418 0.0
H63 H 0.0693 0.10974 0.14258 0.0
H64 H 0.31886 0.26449 0.13061 0.0
H65 H 0.12665 0.17268 0.23047 0.0
H66 H 0.22651 0.35387 0.3566 0.0
H67 H 0.16809 0.28291 0.27458 0.0
H68 H 0.36926 0.25024 0.22319 0.0
H69 H 0.42939 0.32598 0.30432 0.0
C70 C 0.23198 0.1936 0.08444 0.0
C71 C 0.16147 0.14949 0.08677 0.0
C72 C 0.26467 0.23045 0.1343 0.0
C73 C 0.22803 0.22305 0.18808 0.0
C74 C 0.1565 0.18032 0.18979 0.0
C75 C 0.12331 0.14445 0.13942 0.0
C76 C 0.2587 0.33133 0.32825 0.0
C77 C 0.33318 0.34689 0.33659 0.0
C78 C 0.22469 0.28983 0.28116 0.0
C79 C 0.26381 0.26143 0.24148 0.0
C80 C 0.33767 0.27293 0.25196 0.0
C81 C 0.37212 0.31554 0.29893 0.0
H82 H 0.91551 0.20581 0.14689 0.0
H83 H 0.71656 0.05605 0.09304 0.0
H84 H 0.8504 0.26331 0.21174 0.0
H85 H 0.6514 0.11499 0.15636 0.0
H86 H 0.56611 0.20636 0.31808 0.0
H87 H 0.62461 0.14141 0.2542 0.0
H88 H 0.77428 0.33977 0.20019 0.0
H89 H 0.71722 0.40467 0.26561 0.0
C90 C 0.85801 0.18446 0.14946 0.0
C91 C 0.82139 0.12657 0.11431 0.0
C92 C 0.82049 0.21814 0.18602 0.0
C93 C 0.74538 0.19506 0.18815 0.0
C94 C 0.70914 0.13437 0.15585 0.0
C95 C 0.7467 0.10036 0.11957 0.0
C96 C 0.6106 0.23643 0.29172 0.0
C97 C 0.63739 0.31083 0.2976 0.0
C98 C 0.64436 0.19898 0.25511 0.0
C99 C 0.70534 0.23508 0.22308 0.0
C100 C 0.72888 0.30997 0.2257 0.0
C101 C 0.69545 0.34737 0.2626 0.0
H102 H 0.86383 0.71545 0.05838 0.0
H103 H 0.83771 0.9183 0.11158 0.0
H104 H 0.7923 0.65724 0.14 0.0
H105 H 0.76122 0.8584 0.19231 0.0
H106 H 0.70892 0.75087 0.37109 0.0
H107 H 0.77441 0.80763 0.28466 0.0
H108 H 0.68238 0.61607 0.18422 0.0
H109 H 0.62017 0.55833 0.27212 0.0
C110 C 0.84153 0.7477 0.08685 0.0
C111 C 0.85784 0.82209 0.0789 0.0
C112 C 0.79965 0.7138 0.13371 0.0
C113 C 0.77151 0.75293 0.17358 0.0
C114 C 0.78367 0.82675 0.16342 0.0
C115 C 0.82671 0.86109 0.11667 0.0
C116 C 0.7039 0.72061 0.33069 0.0
C117 C 0.66006 0.65009 0.32826 0.0
C118 C 0.74042 0.75353 0.28081 0.0
C119 C 0.73293 0.71715 0.22688 0.0
C120 C 0.6902 0.64574 0.225 0.0
C121 C 0.65471 0.61232 0.27539 0.0
H122 H 0.20143 0.73704 0.066 0.0
H123 H 0.30908 0.95992 0.09348 0.0
H124 H 0.25228 0.70703 0.15789 0.0
H125 H 0.36038 0.9293 0.1864 0.0
H126 H 0.47139 0.7975 0.32689 0.0
H127 H 0.4407 0.84939 0.23437 0.0
H128 H 0.218 0.74054 0.2618 0.0
H129 H 0.24808 0.68906 0.35332 0.0
C130 C 0.23737 0.7795 0.091 0.0
C131 C 0.25048 0.85089 0.0729 0.0
C132 C 0.26606 0.76235 0.14383 0.0
C133 C 0.30854 0.81611 0.17991 0.0
C134 C 0.32727 0.88701 0.15949 0.0
C135 C 0.29831 0.90436 0.1062 0.0
C136 C 0.4157 0.78669 0.31406 0.0
C137 C 0.36216 0.73843 0.34691 0.0
C138 C 0.39831 0.816 0.261 0.0
C139 C 0.3273 0.79723 0.24034 0.0
C140 C 0.27341 0.75438 0.27605 0.0
C141 C 0.29061 0.72532 0.32867 0.0
H142 H 0.21942 0.90298 0.76894 0.0
H143 H 0.06867 0.70483 0.82224 0.0
H144 H 0.27675 0.83779 0.70404 0.0
H145 H 0.12745 0.63958 0.75887 0.0
H146 H 0.21855 0.55425 0.59705 0.0
H147 H 0.15376 0.61287 0.66097 0.0
H148 H 0.353 0.76142 0.71555 0.0
H149 H 0.41774 0.70424 0.65007 0.0
C150 C 0.19782 0.84563 0.76624 0.0
C151 C 0.13971 0.80926 0.80126 0.0
C152 C 0.2314 0.80807 0.72965 0.0
C153 C 0.20798 0.73316 0.72735 0.0
C154 C 0.14708 0.69717 0.75952 0.0
C155 C 0.11317 0.73478 0.79583 0.0
C156 C 0.24884 0.59852 0.62354 0.0
C157 C 0.32345 0.62496 0.6178 0.0
C158 C 0.21149 0.63234 0.66018 0.0
C159 C 0.24789 0.69305 0.69239 0.0
C160 C 0.32297 0.71623 0.6899 0.0
C161 C 0.36028 0.68274 0.65298 0.0
H162 H 0.20999 0.24976 0.87122 0.0
H163 H 0.12247 0.05683 0.77244 0.0
H164 H 0.27616 0.30637 0.78503 0.0
H165 H 0.18545 0.1144 0.68476 0.0
H166 H 0.36664 0.21465 0.55894 0.0
H167 H 0.2957 0.15624 0.64083 0.0
H168 H 0.26248 0.35669 0.6925 0.0
H169 H 0.33828 0.41684 0.61148 0.0
C170 C 0.20544 0.21936 0.83093 0.0
C171 C 0.16165 0.14883 0.82845 0.0
C172 C 0.24235 0.25219 0.78118 0.0
C173 C 0.23533 0.21569 0.72734 0.0
C174 C 0.19285 0.14418 0.72547 0.0
C175 C 0.15694 0.11086 0.77574 0.0
C176 C 0.344 0.2467 0.58733 0.0
C177 C 0.35942 0.32099 0.57905 0.0
C178 C 0.30249 0.21268 0.63434 0.0
C179 C 0.27388 0.25157 0.67407 0.0
C180 C 0.28531 0.32525 0.66371 0.0
C181 C 0.32795 0.35972 0.61679 0.0
H182 H 0.97128 0.29628 0.82346 0.0
H183 H 0.74817 0.18514 0.84755 0.0
H184 H 0.9412 0.34779 0.73053 0.0
H185 H 0.71872 0.2362 0.75564 0.0
H186 H 0.70312 0.23559 0.56032 0.0
H187 H 0.75417 0.20468 0.65183 0.0
H188 H 0.86077 0.42685 0.68245 0.0
H189 H 0.80938 0.45834 0.58993 0.0
C190 C 0.91574 0.2847 0.80998 0.0
C191 C 0.86212 0.23591 0.84236 0.0
C192 C 0.89871 0.31379 0.75668 0.0
C193 C 0.82799 0.29423 0.73529 0.0
C194 C 0.77395 0.25063 0.77042 0.0
C195 C 0.79078 0.22182 0.82328 0.0
C196 C 0.73886 0.27784 0.58568 0.0
C197 C 0.75146 0.34943 0.56833 0.0
C198 C 0.76766 0.26017 0.63828 0.0
C199 C 0.80967 0.31363 0.67489 0.0
C200 C 0.82803 0.38478 0.65513 0.0
C201 C 0.79902 0.40264 0.60206 0.0
H202 H 0.93132 0.825 0.80434 0.0
H203 H 0.72755 0.84956 0.85779 0.0
H204 H 0.87151 0.74851 0.7235 0.0
H205 H 0.66938 0.77803 0.77603 0.0
H206 H 0.57112 0.60658 0.64321 0.0
H207 H 0.62877 0.66847 0.73138 0.0
H208 H 0.82042 0.76193 0.63125 0.0
H209 H 0.76378 0.69669 0.54453 0.0
C210 C 0.87392 0.81364 0.79929 0.0
C211 C 0.83462 0.84437 0.83712 0.0
C212 C 0.83963 0.77061 0.75247 0.0
C213 C 0.76558 0.75808 0.74233 0.0
C214 C 0.72615 0.78572 0.78231 0.0
C215 C 0.76 0.82759 0.82925 0.0
C216 C 0.6251 0.64137 0.64007 0.0
C217 C 0.66296 0.64721 0.58722 0.0
C218 C 0.65847 0.67667 0.69061 0.0
C219 C 0.72988 0.7197 0.68888 0.0
C220 C 0.76632 0.72769 0.63497 0.0
C221 C 0.73347 0.69133 0.58493 0.0
loop_
_geom_bond_atom_site_label_1
_geom_bond_atom_site_label_2
_geom_bond_distance
_geom_bond_site_symmetry_2
_ccdc_geom_bond_type
C0 O27 1.312 . S
C0 O28 1.208 . S
C1 O22 1.331 . S
C1 O25 1.244 . S
C2 O24 1.264 . S
C2 O26 1.273 . S
Mg3 O5 1.936 . S
Mg3 O12 2.081 . S
Mg3 O14 2.023 1_556 S
Mg3 O18 2.031 1_655 S
Mg3 O27 2.291 1_656 S
Mg4 O5 1.963 . S
Mg4 O15 1.942 . S
Mg4 O16 1.955 1_556 S
Mg4 O23 1.986 1_545 S
O5 Mg3 1.936 . S
O5 Mg4 1.963 . S
O5 Mg6 1.915 1_546 S
Mg6 O5 1.915 1_564 S
Mg6 O7 1.915 1_655 S
Mg6 O11 2.013 . S
Mg6 O17 2.114 1_664 S
Mg6 O21 2.013 1_554 S
Mg6 O27 2.114 1_665 S
O7 Mg6 1.915 1_455 S
O7 Mg8 1.936 . S
O7 Mg9 1.963 . S
Mg8 O7 1.936 . S
Mg8 O17 2.291 1_564 S
Mg8 O22 2.081 . S
Mg8 O24 2.023 1_554 S
Mg8 O28 2.031 1_565 S
Mg9 O7 1.963 . S
Mg9 O13 1.986 1_455 S
Mg9 O25 1.942 . S
Mg9 O26 1.955 1_554 S
C10 O21 1.191 . S
C10 O23 1.307 . S
O11 Mg6 2.013 . S
O11 C30 1.191 . S
O12 Mg3 2.081 . S
O12 C20 1.331 . S
O13 Mg9 1.986 1_655 S
O13 C30 1.307 . S
O14 Mg3 2.023 1_554 S
O14 C29 1.264 . S
O15 Mg4 1.942 . S
O15 C20 1.244 . S
O16 Mg4 1.955 1_554 S
O16 C29 1.273 . S
O17 Mg6 2.114 1_446 S
O17 Mg8 2.291 1_546 S
O17 C19 1.312 . S
O18 Mg3 2.031 1_455 S
O18 C19 1.208 . S
C19 O17 1.312 . S
C19 O18 1.208 . S
C20 O12 1.331 . S
C20 O15 1.244 . S
O21 Mg6 2.013 1_556 S
O21 C10 1.191 . S
O22 C1 1.331 . S
O22 Mg8 2.081 . S
O23 Mg4 1.986 1_565 S
O23 C10 1.307 . S
O24 C2 1.264 . S
O24 Mg8 2.023 1_556 S
O25 C1 1.244 . S
O25 Mg9 1.942 . S
O26 C2 1.273 . S
O26 Mg9 1.955 1_556 S
O27 C0 1.312 . S
O27 Mg3 2.291 1_454 S
O27 Mg6 2.114 1_445 S
O28 C0 1.208 . S
O28 Mg8 2.031 1_545 S
C29 O14 1.264 . S
C29 O16 1.273 . S
C30 O11 1.191 . S
C30 O13 1.307 . S
C31 O58 1.312 . S
C31 O59 1.208 . S
C32 O53 1.331 . S
C32 O56 1.244 . S
C33 O55 1.264 . S
C33 O57 1.273 . S
Mg34 O36 1.936 . S
Mg34 O43 2.081 . S
Mg34 O45 2.023 . S
Mg34 O49 2.031 . S
Mg34 O58 2.291 . S
Mg35 O36 1.963 . S
Mg35 O46 1.942 . S
Mg35 O47 1.955 . S
Mg35 O54 1.986 . S
O36 Mg34 1.936 . S
O36 Mg35 1.963 . S
O36 Mg37 1.915 . S
Mg37 O36 1.915 . S
Mg37 O38 1.915 . S
Mg37 O42 2.013 . S
Mg37 O48 2.114 . S
Mg37 O52 2.013 . S
Mg37 O58 2.114 . S
O38 Mg37 1.915 . S
O38 Mg39 1.936 . S
O38 Mg40 1.963 . S
Mg39 O38 1.936 . S
Mg39 O48 2.291 . S
Mg39 O53 2.081 . S
Mg39 O55 2.023 . S
Mg39 O59 2.031 . S
Mg40 O38 1.963 . S
Mg40 O44 1.986 . S
Mg40 O56 1.942 . S
Mg40 O57 1.955 . S
C41 O52 1.191 . S
C41 O54 1.307 . S
O42 Mg37 2.013 . S
O42 C61 1.191 . S
O43 Mg34 2.081 . S
O43 C51 1.331 . S
O44 Mg40 1.986 . S
O44 C61 1.307 . S
O45 Mg34 2.023 . S
O45 C60 1.264 . S
O46 Mg35 1.942 . S
O46 C51 1.244 . S
O47 Mg35 1.955 . S
O47 C60 1.273 . S
O48 Mg37 2.114 . S
O48 Mg39 2.291 . S
O48 C50 1.312 . S
O49 Mg34 2.031 . S
O49 C50 1.208 . S
C50 O48 1.312 . S
C50 O49 1.208 . S
C51 O43 1.331 . S
C51 O46 1.244 . S
O52 Mg37 2.013 . S
O52 C41 1.191 . S
O53 C32 1.331 . S
O53 Mg39 2.081 . S
O54 Mg35 1.986 . S
O54 C41 1.307 . S
O55 C33 1.264 . S
O55 Mg39 2.023 . S
O56 C32 1.244 . S
O56 Mg40 1.942 . S
O57 C33 1.273 . S
O57 Mg40 1.955 . S
O58 C31 1.312 . S
O58 Mg34 2.291 . S
O58 Mg37 2.114 . S
O59 C31 1.208 . S
O59 Mg39 2.031 . S
C60 O45 1.264 . S
C60 O47 1.273 . S
C61 O42 1.191 . S
C61 O44 1.307 . S
H62 C70 0.950 . S
H63 C75 0.950 . S
H64 C72 0.950 . S
H65 C74 0.950 . S
H66 C76 0.950 . S
H67 C78 0.950 . S
H68 C80 0.950 . S
H69 C81 0.950 . S
C70 H62 0.950 . S
C70 C71 1.386 . S
C70 C72 1.391 . S
C71 C70 1.386 . S
C71 C75 1.393 . S
C72 H64 0.950 . S
C72 C70 1.391 . S
C72 C73 1.400 . S
C73 C72 1.400 . S
C73 C74 1.398 . S
C73 C79 1.491 . S
C74 H65 0.950 . S
C74 C73 1.398 . S
C74 C75 1.391 . S
C75 H63 0.950 . S
C75 C71 1.393 . S
C75 C74 1.391 . S
C76 H66 0.950 . S
C76 C77 1.386 . S
C76 C78 1.391 . S
C77 C76 1.386 . S
C77 C81 1.393 . S
C78 H67 0.950 . S
C78 C76 1.391 . S
C78 C79 1.400 . S
C79 C73 1.491 . S
C79 C78 1.400 . S
C79 C80 1.398 . S
C80 H68 0.950 . S
C80 C79 1.398 . S
C80 C81 1.391 . S
C81 H69 0.950 . S
C81 C77 1.393 . S
C81 C80 1.391 . S
H82 C90 0.950 . S
H83 C95 0.950 . S
H84 C92 0.950 . S
H85 C94 0.950 . S
H86 C96 0.950 . S
H87 C98 0.950 . S
H88 C100 0.950 . S
H89 C101 0.950 . S
C90 H82 0.950 . S
C90 C91 1.386 . S
C90 C92 1.391 . S
C91 C90 1.386 . S
C91 C95 1.393 . S
C92 H84 0.950 . S
C92 C90 1.391 . S
C92 C93 1.400 . S
C93 C92 1.400 . S
C93 C94 1.398 . S
C93 C99 1.491 . S
C94 H85 0.950 . S
C94 C93 1.398 . S
C94 C95 1.391 . S
C95 H83 0.950 . S
C95 C91 1.393 . S
C95 C94 1.391 . S
C96 H86 0.950 . S
C96 C97 1.386 . S
C96 C98 1.391 . S
C97 C96 1.386 . S
C97 C101 1.393 . S
C98 H87 0.950 . S
C98 C96 1.391 . S
C98 C99 1.400 . S
C99 C93 1.491 . S
C99 C98 1.400 . S
C99 C100 1.398 . S
C100 H88 0.950 . S
C100 C99 1.398 . S
C100 C101 1.391 . S
C101 H89 0.950 . S
C101 C97 1.393 . S
C101 C100 1.391 . S
H102 C110 0.950 . S
H103 C115 0.950 . S
H104 C112 0.950 . S
H105 C114 0.950 . S
H106 C116 0.950 . S
H107 C118 0.950 . S
H108 C120 0.950 . S
H109 C121 0.950 . S
C110 H102 0.950 . S
C110 C111 1.386 . S
C110 C112 1.391 . S
C111 C110 1.386 . S
C111 C115 1.393 . S
C112 H104 0.950 . S
C112 C110 1.391 . S
C112 C113 1.400 . S
C113 C112 1.400 . S
C113 C114 1.398 . S
C113 C119 1.491 . S
C114 H105 0.950 . S
C114 C113 1.398 . S
C114 C115 1.391 . S
C115 H103 0.950 . S
C115 C111 1.393 . S
C115 C114 1.391 . S
C116 H106 0.950 . S
C116 C117 1.386 . S
C116 C118 1.391 . S
C117 C116 1.386 . S
C117 C121 1.393 . S
C118 H107 0.950 . S
C118 C116 1.391 . S
C118 C119 1.400 . S
C119 C113 1.491 . S
C119 C118 1.400 . S
C119 C120 1.398 . S
C120 H108 0.950 . S
C120 C119 1.398 . S
C120 C121 1.391 . S
C121 H109 0.950 . S
C121 C117 1.393 . S
C121 C120 1.391 . S
H122 C130 0.950 . S
H123 C135 0.950 . S
H124 C132 0.950 . S
H125 C134 0.950 . S
H126 C136 0.950 . S
H127 C138 0.950 . S
H128 C140 0.950 . S
H129 C141 0.950 . S
C130 H122 0.950 . S
C130 C131 1.386 . S
C130 C132 1.391 . S
C131 C130 1.386 . S
C131 C135 1.393 . S
C132 H124 0.950 . S
C132 C130 1.391 . S
C132 C133 1.400 . S
C133 C132 1.400 . S
C133 C134 1.398 . S
C133 C139 1.491 . S
C134 H125 0.950 . S
C134 C133 1.398 . S
C134 C135 1.391 . S
C135 H123 0.950 . S
C135 C131 1.393 . S
C135 C134 1.391 . S
C136 H126 0.950 . S
C136 C137 1.386 . S
C136 C138 1.391 . S
C137 C136 1.386 . S
C137 C141 1.393 . S
C138 H127 0.950 . S
C138 C136 1.391 . S
C138 C139 1.400 . S
C139 C133 1.491 . S
C139 C138 1.400 . S
C139 C140 1.398 . S
C140 H128 0.950 . S
C140 C139 1.398 . S
C140 C141 1.391 . S
C141 H129 0.950 . S
C141 C137 1.393 . S
C141 C140 1.391 . S
H142 C150 0.950 . S
H143 C155 0.950 . S
H144 C152 0.950 . S
H145 C154 0.950 . S
H146 C156 0.950 . S
H147 C158 0.950 . S
H148 C160 0.950 . S
H149 C161 0.950 . S
C150 H142 0.950 . S
C150 C151 1.386 . S
C150 C152 1.391 . S
C151 C150 1.386 . S
C151 C155 1.393 . S
C152 H144 0.950 . S
C152 C150 1.391 . S
C152 C153 1.400 . S
C153 C152 1.400 . S
C153 C154 1.398 . S
C153 C159 1.491 . S
C154 H145 0.950 . S
C154 C153 1.398 . S
C154 C155 1.391 . S
C155 H143 0.950 . S
C155 C151 1.393 . S
C155 C154 1.391 . S
C156 H146 0.950 . S
C156 C157 1.386 . S
C156 C158 1.391 . S
C157 C156 1.386 . S
C157 C161 1.393 . S
C158 H147 0.950 . S
C158 C156 1.391 . S
C158 C159 1.400 . S
C159 C153 1.491 . S
C159 C158 1.400 . S
C159 C160 1.398 . S
C160 H148 0.950 . S
C160 C159 1.398 . S
C160 C161 1.391 . S
C161 H149 0.950 . S
C161 C157 1.393 . S
C161 C160 1.391 . S
H162 C170 0.950 . S
H163 C175 0.950 . S
H164 C172 0.950 . S
H165 C174 0.950 . S
H166 C176 0.950 . S
H167 C178 0.950 . S
H168 C180 0.950 . S
H169 C181 0.950 . S
C170 H162 0.950 . S
C170 C171 1.386 . S
C170 C172 1.391 . S
C171 C170 1.386 . S
C171 C175 1.393 . S
C172 H164 0.950 . S
C172 C170 1.391 . S
C172 C173 1.400 . S
C173 C172 1.400 . S
C173 C174 1.398 . S
C173 C179 1.491 . S
C174 H165 0.950 . S
C174 C173 1.398 . S
C174 C175 1.391 . S
C175 H163 0.950 . S
C175 C171 1.393 . S
C175 C174 1.391 . S
C176 H166 0.950 . S
C176 C177 1.386 . S
C176 C178 1.391 . S
C177 C176 1.386 . S
C177 C181 1.393 . S
C178 H167 0.950 . S
C178 C176 1.391 . S
C178 C179 1.400 . S
C179 C173 1.491 . S
C179 C178 1.400 . S
C179 C180 1.398 . S
C180 H168 0.950 . S
C180 C179 1.398 . S
C180 C181 1.391 . S
C181 H169 0.950 . S
C181 C177 1.393 . S
C181 C180 1.391 . S
H182 C190 0.950 . S
H183 C195 0.950 . S
H184 C192 0.950 . S
H185 C194 0.950 . S
H186 C196 0.950 . S
H187 C198 0.950 . S
H188 C200 0.950 . S
H189 C201 0.950 . S
C190 H182 0.950 . S
C190 C191 1.386 . S
C190 C192 1.391 . S
C191 C190 1.386 . S
C191 C195 1.393 . S
C192 H184 0.950 . S
C192 C190 1.391 . S
C192 C193 1.400 . S
C193 C192 1.400 . S
C193 C194 1.398 . S
C193 C199 1.491 . S
C194 H185 0.950 . S
C194 C193 1.398 . S
C194 C195 1.391 . S
C195 H183 0.950 . S
C195 C191 1.393 . S
C195 C194 1.391 . S
C196 H186 0.950 . S
C196 C197 1.386 . S
C196 C198 1.391 . S
C197 C196 1.386 . S
C197 C201 1.393 . S
C198 H187 0.950 . S
C198 C196 1.391 . S
C198 C199 1.400 . S
C199 C193 1.491 . S
C199 C198 1.400 . S
C199 C200 1.398 . S
C200 H188 0.950 . S
C200 C199 1.398 . S
C200 C201 1.391 . S
C201 H189 0.950 . S
C201 C197 1.393 . S
C201 C200 1.391 . S
H202 C210 0.950 . S
H203 C215 0.950 . S
H204 C212 0.950 . S
H205 C214 0.950 . S
H206 C216 0.950 . S
H207 C218 0.950 . S
H208 C220 0.950 . S
H209 C221 0.950 . S
C210 H202 0.950 . S
C210 C211 1.386 . S
C210 C212 1.391 . S
C211 C210 1.386 . S
C211 C215 1.393 . S
C212 H204 0.950 . S
C212 C210 1.391 . S
C212 C213 1.400 . S
C213 C212 1.400 . S
C213 C214 1.398 . S
C213 C219 1.491 . S
C214 H205 0.950 . S
C214 C213 1.398 . S
C214 C215 1.391 . S
C215 H203 0.950 . S
C215 C211 1.393 . S
C215 C214 1.391 . S
C216 H206 0.950 . S
C216 C217 1.386 . S
C216 C218 1.391 . S
C217 C216 1.386 . S
C217 C221 1.393 . S
C218 H207 0.950 . S
C218 C216 1.391 . S
C218 C219 1.400 . S
C219 C213 1.491 . S
C219 C218 1.400 . S
C219 C220 1.398 . S
C220 H208 0.950 . S
C220 C219 1.398 . S
C220 C221 1.391 . S
C221 H209 0.950 . S
C221 C217 1.393 . S
C221 C220 1.391 . S
C71 C0 1.229 . S
C77 C41 1.247 . S
C91 C29 1.699 . S
C97 C33 1.699 . S
C111 C30 1.248 . S
C117 C50 1.232 . S
C131 C1 1.573 . S
C137 C51 1.565 . S
C151 C2 1.700 . S
C157 C60 1.700 . S
C177 C61 1.259 . S
C171 C19 1.243 . S
C191 C20 1.576 . S
C197 C32 1.571 . S
C217 C31 1.229 . S
C211 C10 1.253 . S
