# Generated by pormake.
# Topology pts, (4,4)-cn, num edge types: 1
# Building blocks:
#     Node 0, Type 0, BuildingBlock: MUDLON_clean_sbu_0, # of connection points: 4
#     Node 1, Type 0, BuildingBlock: MUDLON_clean_sbu_0, # of connection points: 4
#     Node 2, Type 1, BuildingBlock: UXUYUI_clean_sbu_0, # of connection points: 4
#     Node 3, Type 1, BuildingBlock: UXUYUI_clean_sbu_0, # of connection points: 4
#     Edge 4, Type (0, 1), BuildingBlock: EYOCIG_clean_linker_4, # of connection points: 2
#     Edge 5, Type (0, 1), BuildingBlock: EYOCIG_clean_linker_4, # of connection points: 2
#     Edge 6, Type (0, 1), BuildingBlock: EYOCIG_clean_linker_4, # of connection points: 2
#     Edge 7, Type (0, 1), BuildingBlock: EYOCIG_clean_linker_4, # of connection points: 2
#     Edge 8, Type (0, 1), BuildingBlock: EYOCIG_clean_linker_4, # of connection points: 2
#     Edge 9, Type (0, 1), BuildingBlock: EYOCIG_clean_linker_4, # of connection points: 2
#     Edge 10, Type (0, 1), BuildingBlock: EYOCIG_clean_linker_4, # of connection points: 2
#     Edge 11, Type (0, 1), BuildingBlock: EYOCIG_clean_linker_4, # of connection points: 2
# Relax obj value: 0.040
# Max RMSD: 0.091
# Mean RMSD: 0.080
data_MOF--net-pts--node1-MUDLON_clean_sbu_0--node2-UXUYUI_clean_sbu_0--edge1-EYOCIG_clean_linker_4
_symmetry_space_group_name_H-M    P1
_symmetry_Int_Tables_number       1
_symmetry_cell_setting            triclinic
loop_
_symmetry_equiv_pos_as_xyz
'x, y, z'
_cell_length_a     24.256578
_cell_length_b     24.265887
_cell_length_c     40.129623
_cell_angle_alpha  90.065318
_cell_angle_beta   90.1215
_cell_angle_gamma 90.016211
loop_
_atom_site_label
_atom_site_type_symbol
_atom_site_fract_x
_atom_site_fract_y
_atom_site_fract_z
_atom_type_partial_charge
Mg0 Mg 0.49836 -0.00096 1.01609 0.0
C1 C 0.41628 0.99228 0.96336 0.0
O2 O 0.4298 0.94069 0.9688 0.0
C3 C 0.58356 0.99255 0.06682 0.0
O4 O 0.57291 0.94086 0.0596 0.0
C5 C 0.41235 0.97044 0.06777 0.0
O6 O 0.4259 0.91995 0.05946 0.0
O7 O 0.4358 0.01096 0.05384 0.0
O8 O 0.43953 0.03028 0.98011 0.0
O9 O 0.56196 0.01126 0.97906 0.0
C10 C 0.58164 0.97135 0.96256 0.0
O11 O 0.56354 0.92115 0.96771 0.0
O12 O 0.55729 0.03061 0.05194 0.0
Mg13 Mg 0.00092 0.49933 0.51647 0.0
C14 C 0.01071 0.58162 0.56978 0.0
O15 O 0.0622 0.56738 0.56473 0.0
C16 C 0.01096 0.41408 0.46503 0.0
O17 O 0.0626 0.4254 0.47204 0.0
C18 C 0.02062 0.58479 0.46468 0.0
O19 O 0.07162 0.5717 0.47218 0.0
O20 O 0.98104 0.56091 0.47936 0.0
O21 O 0.97269 0.55909 0.55275 0.0
O22 O 0.98058 0.4373 0.55316 0.0
C23 C 0.01967 0.4162 0.56984 0.0
O24 O 0.07051 0.43248 0.56469 0.0
O25 O 0.97271 0.43955 0.48014 0.0
Li26 Li -0.00094 0.05138 0.28845 0.0
Li27 Li 0.99633 0.94768 0.28818 0.0
Li28 Li 0.04999 0.00104 0.24438 0.0
Li29 Li 0.94623 0.99857 0.24389 0.0
C30 C 0.1074 0.0046 0.31166 0.0
N31 N 0.20307 0.01727 0.34826 0.0
C32 C 0.11677 0.97196 0.33977 0.0
C33 C 0.14654 0.04374 0.30213 0.0
C34 C 0.16538 0.97904 0.35798 0.0
C35 C 0.19475 0.04944 0.32095 0.0
C36 C 0.88817 0.9943 0.31093 0.0
C37 C 0.80094 0.94932 0.32004 0.0
N38 N 0.79299 0.98095 0.34763 0.0
C39 C 0.87919 0.02639 0.33934 0.0
C40 C 0.84888 0.9554 0.30114 0.0
C41 C 0.83081 0.01898 0.35759 0.0
C42 C 0.96561 0.15809 0.3068 0.0
N43 N 0.99815 0.11497 0.31588 0.0
C44 C 0.02645 0.1621 0.36532 0.0
C45 C 0.02817 0.116 0.34453 0.0
C46 C 0.99322 0.20693 0.35651 0.0
C47 C 0.96256 0.205 0.32695 0.0
H48 H 0.94173 0.15577 0.28404 0.0
H49 H 0.05291 0.08084 0.35147 0.0
C50 C 0.02531 0.8391 0.30636 0.0
N51 N 0.99543 0.88399 0.31561 0.0
C52 C 0.02628 0.7922 0.32654 0.0
C53 C 0.96584 0.83869 0.36531 0.0
C54 C 0.96615 0.88471 0.34448 0.0
C55 C 0.99633 0.7921 0.35632 0.0
H56 H 0.04875 0.83998 0.28346 0.0
H57 H 0.94368 0.92123 0.35162 0.0
C58 C 0.00353 0.10936 0.22146 0.0
N59 N 0.01676 0.20476 0.18493 0.0
C60 C 0.97137 0.1185 0.19306 0.0
C61 C 0.04246 0.14859 0.2313 0.0
C62 C 0.97872 0.167 0.1749 0.0
C63 C 0.04847 0.19664 0.2125 0.0
C64 C 0.99283 0.89018 0.22087 0.0
C65 C 0.02548 0.8809 0.19277 0.0
C66 C 0.95371 0.85101 0.23037 0.0
C67 C 0.01843 0.83234 0.17455 0.0
C68 C 0.94804 0.80285 0.21154 0.0
N69 N 0.98023 0.79461 0.18425 0.0
C70 C 0.15825 0.97104 0.2264 0.0
C71 C 0.11353 0.03082 0.18819 0.0
C72 C 0.20508 0.9692 0.2062 0.0
N73 N 0.11379 0.00155 0.21707 0.0
C74 C 0.15951 0.03026 0.16733 0.0
C75 C 0.20557 -0.0011 0.17632 0.0
H76 H 0.157 0.94765 0.24932 0.0
H77 H 0.07734 0.05386 0.18101 0.0
C78 C 0.83976 0.0325 0.22543 0.0
N79 N 0.88267 -0.00032 0.21638 0.0
C80 C 0.79297 0.03612 0.20517 0.0
C81 C 0.83546 0.9721 0.16679 0.0
C82 C 0.88147 0.9698 0.1877 0.0
C83 C 0.79092 0.00575 0.17552 0.0
H84 H 0.84222 0.05624 0.24822 0.0
H85 H 0.91645 0.94479 0.18079 0.0
O86 O 0.06037 0.99751 0.29336 0.0
O87 O 0.93505 0.00156 0.29266 0.0
O88 O 0.9963 0.06239 0.23965 0.0
O89 O -4e-05 0.93711 0.23922 0.0
H90 H 0.08679 0.94147 0.34743 0.0
H91 H 0.13984 0.06919 0.28036 0.0
H92 H 0.17319 0.9541 0.37981 0.0
H93 H 0.22557 0.0794 0.31385 0.0
H94 H 0.77003 0.91948 0.31276 0.0
H95 H 0.90931 0.05665 0.34723 0.0
H96 H 0.8553 0.93035 0.27915 0.0
H97 H 0.8233 0.0435 0.37966 0.0
H98 H 0.05044 0.16255 0.38813 0.0
H99 H 0.93642 0.23913 0.31964 0.0
H100 H 0.05056 0.75676 0.31918 0.0
H101 H 0.94269 0.83978 0.38837 0.0
H102 H 0.9411 0.08844 0.18513 0.0
H103 H 0.06756 0.14204 0.25328 0.0
H104 H 0.95414 0.17463 0.15286 0.0
H105 H 0.07832 0.22751 0.21983 0.0
H106 H 0.05597 0.9109 0.18514 0.0
H107 H 0.92825 0.85763 0.25214 0.0
H108 H 0.04339 0.82459 0.15273 0.0
H109 H 0.9181 0.772 0.21863 0.0
H110 H 0.2401 0.94429 0.21358 0.0
H111 H 0.15873 0.05326 0.1442 0.0
H112 H 0.75907 0.06257 0.21244 0.0
H113 H 0.83491 0.94831 0.14392 0.0
Li114 Li 0.94757 0.00105 0.78888 0.0
Li115 Li 0.05131 0.99849 0.78786 0.0
Li116 Li 0.99664 0.05027 0.74374 0.0
Li117 Li -0.0007 0.94656 0.74476 0.0
C118 C 0.99396 0.10896 0.8111 0.0
N119 N 0.98049 0.20356 0.84848 0.0
C120 C 0.02628 0.11775 0.83948 0.0
C121 C 0.95472 0.14813 0.80171 0.0
C122 C 0.0188 0.16584 0.85808 0.0
C123 C 0.9486 0.19579 0.82093 0.0
C124 C 0.00454 0.88996 0.81176 0.0
C125 C 0.04904 0.80237 0.82043 0.0
N126 N 0.01695 0.79382 0.84771 0.0
C127 C 0.97196 0.88036 0.83984 0.0
C128 C 0.04346 0.85081 0.80193 0.0
C129 C 0.97891 0.83151 0.85772 0.0
C130 C 0.84004 0.97121 0.80706 0.0
N131 N 0.88429 0.00199 0.81646 0.0
C132 C 0.83779 0.03154 0.86578 0.0
C133 C 0.88411 0.0318 0.84519 0.0
C134 C 0.79189 -2e-05 0.85665 0.0
C135 C 0.7929 0.96967 0.82697 0.0
H136 H 0.84165 0.94745 0.78426 0.0
H137 H 0.92012 0.05512 0.8524 0.0
C138 C 0.15867 0.03241 0.80546 0.0
N139 N 0.11572 -0.00015 0.81477 0.0
C140 C 0.2058 0.03591 0.82547 0.0
C141 C 0.16357 0.97233 0.86413 0.0
C142 C 0.11723 0.97013 0.84347 0.0
C143 C 0.20815 0.00571 0.85513 0.0
H144 H 0.15599 0.05605 0.78268 0.0
H145 H 0.08222 0.94534 0.8506 0.0
C146 C 0.88866 0.00368 0.72158 0.0
N147 N 0.79391 0.01702 0.68423 0.0
C148 C 0.87985 0.97136 0.69322 0.0
C149 C 0.84945 0.04284 0.73097 0.0
C150 C 0.83168 0.97878 0.67463 0.0
C151 C 0.80171 0.04889 0.71176 0.0
C152 C 0.10774 0.99333 0.72083 0.0
C153 C 0.11733 0.0259 0.69274 0.0
C154 C 0.14684 0.95429 0.73064 0.0
C155 C 0.16611 0.01883 0.67481 0.0
C156 C 0.1952 0.94859 0.71208 0.0
N157 N 0.20373 0.98068 0.68479 0.0
C158 C 0.02545 0.15822 0.72544 0.0
C159 C 0.96543 0.11319 0.68738 0.0
C160 C 0.02604 0.20541 0.70554 0.0
N161 N 0.99531 0.11351 0.7161 0.0
C162 C 0.96474 0.15954 0.66681 0.0
C163 C 0.99544 0.20599 0.67593 0.0
H164 H 0.0493 0.15701 0.74824 0.0
H165 H 0.94268 0.07682 0.68019 0.0
C166 C 0.96561 0.83915 0.72713 0.0
N167 N 0.99799 0.88225 0.71784 0.0
C168 C 0.9625 0.79196 0.70718 0.0
C169 C 0.02595 0.83456 0.66858 0.0
C170 C 0.02775 0.88092 0.68917 0.0
C171 C 0.99291 0.78974 0.67761 0.0
H172 H 0.94191 0.84169 0.74988 0.0
H173 H 0.05234 0.91606 0.68204 0.0
O174 O 0.0015 0.06254 0.79238 0.0
O175 O 0.99771 0.93733 0.79386 0.0
O176 O 0.93521 0.99626 0.74025 0.0
O177 O 0.06043 0.00024 0.73875 0.0
H178 H 0.05683 0.08775 0.84705 0.0
H179 H 0.92949 0.14187 0.77974 0.0
H180 H 0.04352 0.1732 0.88011 0.0
H181 H 0.91855 0.22662 0.81394 0.0
H182 H 0.07887 0.77154 0.8131 0.0
H183 H 0.94165 0.91037 0.84774 0.0
H184 H 0.06887 0.85768 0.78018 0.0
H185 H 0.95401 0.82353 0.87953 0.0
H186 H 0.83814 0.05501 0.88877 0.0
H187 H 0.75802 0.9446 0.8195 0.0
H188 H 0.23973 0.06217 0.81801 0.0
H189 H 0.16431 0.94868 0.88702 0.0
H190 H 0.90989 0.94089 0.68564 0.0
H191 H 0.85574 0.06807 0.75292 0.0
H192 H 0.8243 0.95408 0.65261 0.0
H193 H 0.77084 0.07889 0.71875 0.0
H194 H 0.08737 0.05629 0.68486 0.0
H195 H 0.13997 0.92888 0.75239 0.0
H196 H 0.17408 0.04372 0.65299 0.0
H197 H 0.22598 0.91867 0.71939 0.0
H198 H 0.05049 0.24073 0.71299 0.0
H199 H 0.94108 0.15885 0.64388 0.0
H200 H 0.93649 0.75786 0.71466 0.0
H201 H 0.04974 0.8339 0.64576 0.0
C202 C 0.33414 0.9868 0.11234 0.0
C203 C 0.36991 0.97991 0.09195 0.0
C204 C 0.29067 0.99259 0.1354 0.0
C205 C 0.25204 0.99526 0.15417 0.0
C206 C 0.00244 0.33672 0.61336 0.0
C207 C 0.00887 0.37307 0.59332 0.0
C208 C 0.99826 0.29244 0.63595 0.0
C209 C 0.99717 0.25319 0.6543 0.0
C210 C 0.66174 0.00981 0.11135 0.0
C211 C 0.62565 0.00493 0.09086 0.0
C212 C 0.70536 0.01097 0.13469 0.0
C213 C 0.74374 0.00947 0.1538 0.0
C214 C 0.9925 0.65989 0.61406 0.0
C215 C 0.99842 0.624 0.59359 0.0
C216 C 0.98978 0.70349 0.63732 0.0
C217 C 0.99015 0.74204 0.65629 0.0
C218 C 0.33787 0.00939 0.91896 0.0
C219 C 0.37387 0.00447 0.9395 0.0
C220 C 0.29419 0.01068 0.89565 0.0
C221 C 0.25564 0.00935 0.87664 0.0
C222 C 0.99272 0.3362 0.42047 0.0
C223 C 0.99858 0.37206 0.44098 0.0
C224 C 0.99007 0.29273 0.39713 0.0
C225 C 0.99049 0.25435 0.37803 0.0
C226 C 0.66147 0.98818 0.91917 0.0
C227 C 0.62501 0.98098 0.93904 0.0
C228 C 0.70574 0.99414 0.89673 0.0
C229 C 0.74496 0.99674 0.87843 0.0
C230 C 0.00383 0.66298 0.42017 0.0
C231 C 0.01 0.62713 0.44059 0.0
C232 C -0.00026 0.70659 0.39707 0.0
C233 C 0.9985 0.74531 0.3783 0.0
loop_
_geom_bond_atom_site_label_1
_geom_bond_atom_site_label_2
_geom_bond_distance
_geom_bond_site_symmetry_2
_ccdc_geom_bond_type
Mg0 O7 2.165 . S
Mg0 O8 2.025 1_554 S
Mg0 O9 2.025 1_554 S
Mg0 O12 2.165 . S
C1 O2 1.313 . S
C1 O8 1.195 1_565 S
O2 C1 1.313 . S
C3 O4 1.245 . S
C3 O12 1.289 1_565 S
O4 C3 1.245 . S
C5 O6 1.245 . S
C5 O7 1.289 1_565 S
O6 C5 1.245 . S
O7 Mg0 2.165 . S
O7 C5 1.289 1_545 S
O8 Mg0 2.025 1_556 S
O8 C1 1.195 1_545 S
O9 Mg0 2.025 1_556 S
O9 C10 1.195 1_545 S
C10 O9 1.195 1_565 S
C10 O11 1.313 . S
O11 C10 1.313 . S
O12 Mg0 2.165 . S
O12 C3 1.289 1_545 S
Mg13 O20 2.141 . S
Mg13 O21 2.048 . S
Mg13 O22 2.048 . S
Mg13 O25 2.141 . S
C14 O15 1.313 . S
C14 O21 1.195 1_455 S
O15 C14 1.313 . S
C16 O17 1.245 . S
C16 O25 1.289 1_455 S
O17 C16 1.245 . S
C18 O19 1.245 . S
C18 O20 1.289 1_455 S
O19 C18 1.245 . S
O20 Mg13 2.141 . S
O20 C18 1.289 1_655 S
O21 Mg13 2.048 . S
O21 C14 1.195 1_655 S
O22 Mg13 2.048 . S
O22 C23 1.195 1_655 S
C23 O22 1.195 1_455 S
C23 O24 1.313 . S
O24 C23 1.313 . S
O25 Mg13 2.141 . S
O25 C16 1.289 1_655 S
Li26 N43 1.990 . S
Li26 O86 1.956 1_545 S
Li26 O87 1.970 1_455 S
Li26 O88 1.961 1_455 S
Li27 N51 1.990 . S
Li27 O86 1.970 1_655 S
Li27 O87 1.956 1_565 S
Li27 O89 1.961 1_655 S
Li28 N73 1.990 . S
Li28 O86 1.961 1_545 S
Li28 O88 1.956 1_455 S
Li28 O89 1.970 1_545 S
Li29 N79 1.990 . S
Li29 O87 1.961 1_565 S
Li29 O88 1.970 1_565 S
Li29 O89 1.956 1_655 S
C30 C32 1.348 1_545 S
C30 C33 1.356 . S
C30 O86 1.325 1_545 S
N31 C34 1.314 1_545 S
N31 C35 1.279 . S
C32 C30 1.348 1_565 S
C32 C34 1.353 . S
C32 H90 0.929 . S
C33 C30 1.356 . S
C33 C35 1.358 . S
C33 H91 0.930 . S
C34 N31 1.314 1_565 S
C34 C32 1.353 . S
C34 H92 0.930 . S
C35 N31 1.279 . S
C35 C33 1.358 . S
C35 H93 0.930 . S
C36 C39 1.348 . S
C36 C40 1.356 1_545 S
C36 O87 1.325 . S
C37 N38 1.279 . S
C37 C40 1.358 . S
C37 H94 0.930 . S
N38 C37 1.279 . S
N38 C41 1.314 1_565 S
C39 C36 1.348 . S
C39 C41 1.353 . S
C39 H95 0.929 . S
C40 C36 1.356 1_565 S
C40 C37 1.358 . S
C40 H96 0.930 . S
C41 N38 1.314 1_545 S
C41 C39 1.353 . S
C41 H97 0.930 . S
C42 N43 1.314 1_655 S
C42 C47 1.353 . S
C42 H48 0.930 . S
N43 Li26 1.990 . S
N43 C42 1.314 1_455 S
N43 C45 1.279 . S
C44 C45 1.358 . S
C44 C46 1.356 . S
C44 H98 0.930 . S
C45 N43 1.279 . S
C45 C44 1.358 . S
C45 H49 0.930 . S
C46 C44 1.356 . S
C46 C47 1.348 1_455 S
C47 C42 1.353 . S
C47 C46 1.348 1_655 S
C47 H99 0.929 . S
H48 C42 0.930 . S
H49 C45 0.930 . S
C50 N51 1.314 1_455 S
C50 C52 1.353 . S
C50 H56 0.930 . S
N51 Li27 1.990 . S
N51 C50 1.314 1_655 S
N51 C54 1.279 . S
C52 C50 1.353 . S
C52 C55 1.348 . S
C52 H100 0.929 . S
C53 C54 1.358 . S
C53 C55 1.356 1_655 S
C53 H101 0.930 . S
C54 N51 1.279 . S
C54 C53 1.358 . S
C54 H57 0.930 . S
C55 C52 1.348 . S
C55 C53 1.356 1_455 S
H56 C50 0.930 . S
H57 C54 0.930 . S
C58 C60 1.348 1_455 S
C58 C61 1.356 . S
C58 O88 1.325 1_455 S
N59 C62 1.314 1_455 S
N59 C63 1.279 . S
C60 C58 1.348 1_655 S
C60 C62 1.353 . S
C60 H102 0.929 . S
C61 C58 1.356 . S
C61 C63 1.358 . S
C61 H103 0.930 . S
C62 N59 1.314 1_655 S
C62 C60 1.353 . S
C62 H104 0.930 . S
C63 N59 1.279 . S
C63 C61 1.358 . S
C63 H105 0.930 . S
C64 C65 1.348 . S
C64 C66 1.356 1_455 S
C64 O89 1.325 . S
C65 C64 1.348 . S
C65 C67 1.353 . S
C65 H106 0.929 . S
C66 C64 1.356 1_655 S
C66 C68 1.358 . S
C66 H107 0.930 . S
C67 C65 1.353 . S
C67 N69 1.314 1_455 S
C67 H108 0.930 . S
C68 C66 1.358 . S
C68 N69 1.279 . S
C68 H109 0.930 . S
N69 C67 1.314 1_655 S
N69 C68 1.279 . S
C70 C72 1.353 . S
C70 N73 1.314 1_565 S
C70 H76 0.930 . S
C71 N73 1.279 . S
C71 C74 1.358 . S
C71 H77 0.930 . S
C72 C70 1.353 . S
C72 C75 1.348 1_565 S
C72 H110 0.929 . S
N73 Li28 1.990 . S
N73 C70 1.314 1_545 S
N73 C71 1.279 . S
C74 C71 1.358 . S
C74 C75 1.356 . S
C74 H111 0.930 . S
C75 C72 1.348 1_545 S
C75 C74 1.356 . S
H76 C70 0.930 . S
H77 C71 0.930 . S
C78 N79 1.314 1_545 S
C78 C80 1.353 . S
C78 H84 0.930 . S
N79 Li29 1.990 . S
N79 C78 1.314 1_565 S
N79 C82 1.279 . S
C80 C78 1.353 . S
C80 C83 1.348 . S
C80 H112 0.929 . S
C81 C82 1.358 . S
C81 C83 1.356 1_565 S
C81 H113 0.930 . S
C82 N79 1.279 . S
C82 C81 1.358 . S
C82 H85 0.930 . S
C83 C80 1.348 . S
C83 C81 1.356 1_545 S
H84 C78 0.930 . S
H85 C82 0.930 . S
O86 Li26 1.956 1_565 S
O86 Li27 1.970 1_455 S
O86 Li28 1.961 1_565 S
O86 C30 1.325 1_565 S
O87 Li26 1.970 1_655 S
O87 Li27 1.956 1_545 S
O87 Li29 1.961 1_545 S
O87 C36 1.325 . S
O88 Li26 1.961 1_655 S
O88 Li28 1.956 1_655 S
O88 Li29 1.970 1_545 S
O88 C58 1.325 1_655 S
O89 Li27 1.961 1_455 S
O89 Li28 1.970 1_565 S
O89 Li29 1.956 1_455 S
O89 C64 1.325 . S
H90 C32 0.929 . S
H91 C33 0.930 . S
H92 C34 0.930 . S
H93 C35 0.930 . S
H94 C37 0.930 . S
H95 C39 0.929 . S
H96 C40 0.930 . S
H97 C41 0.930 . S
H98 C44 0.930 . S
H99 C47 0.929 . S
H100 C52 0.929 . S
H101 C53 0.930 . S
H102 C60 0.929 . S
H103 C61 0.930 . S
H104 C62 0.930 . S
H105 C63 0.930 . S
H106 C65 0.929 . S
H107 C66 0.930 . S
H108 C67 0.930 . S
H109 C68 0.930 . S
H110 C72 0.929 . S
H111 C74 0.930 . S
H112 C80 0.929 . S
H113 C81 0.930 . S
Li114 N131 1.990 . S
Li114 O174 1.956 1_655 S
Li114 O175 1.970 1_545 S
Li114 O176 1.961 1_545 S
Li115 N139 1.990 . S
Li115 O174 1.970 1_565 S
Li115 O175 1.956 1_455 S
Li115 O177 1.961 1_565 S
Li116 N161 1.990 . S
Li116 O174 1.961 1_655 S
Li116 O176 1.956 1_545 S
Li116 O177 1.970 1_655 S
Li117 N167 1.990 . S
Li117 O175 1.961 1_455 S
Li117 O176 1.970 1_455 S
Li117 O177 1.956 1_565 S
C118 C120 1.348 . S
C118 C121 1.355 1_455 S
C118 O174 1.325 . S
N119 C122 1.314 1_655 S
N119 C123 1.279 . S
C120 C118 1.348 . S
C120 C122 1.353 . S
C120 H178 0.929 . S
C121 C118 1.355 1_655 S
C121 C123 1.358 . S
C121 H179 0.930 . S
C122 N119 1.314 1_455 S
C122 C120 1.353 . S
C122 H180 0.930 . S
C123 N119 1.279 . S
C123 C121 1.358 . S
C123 H181 0.930 . S
C124 C127 1.348 1_455 S
C124 C128 1.355 . S
C124 O175 1.325 1_455 S
C125 N126 1.279 . S
C125 C128 1.358 . S
C125 H182 0.930 . S
N126 C125 1.279 . S
N126 C129 1.314 1_455 S
C127 C124 1.348 1_655 S
C127 C129 1.353 . S
C127 H183 0.929 . S
C128 C124 1.355 . S
C128 C125 1.358 . S
C128 H184 0.930 . S
C129 N126 1.314 1_655 S
C129 C127 1.353 . S
C129 H185 0.930 . S
C130 N131 1.314 1_565 S
C130 C135 1.353 . S
C130 H136 0.930 . S
N131 Li114 1.990 . S
N131 C130 1.314 1_545 S
N131 C133 1.279 . S
C132 C133 1.358 . S
C132 C134 1.355 . S
C132 H186 0.930 . S
C133 N131 1.279 . S
C133 C132 1.358 . S
C133 H137 0.930 . S
C134 C132 1.355 . S
C134 C135 1.348 1_545 S
C135 C130 1.353 . S
C135 C134 1.348 1_565 S
C135 H187 0.929 . S
H136 C130 0.930 . S
H137 C133 0.930 . S
C138 N139 1.314 1_545 S
C138 C140 1.353 . S
C138 H144 0.930 . S
N139 Li115 1.990 . S
N139 C138 1.314 1_565 S
N139 C142 1.279 . S
C140 C138 1.353 . S
C140 C143 1.348 . S
C140 H188 0.929 . S
C141 C142 1.358 . S
C141 C143 1.355 1_565 S
C141 H189 0.930 . S
C142 N139 1.279 . S
C142 C141 1.358 . S
C142 H145 0.930 . S
C143 C140 1.348 . S
C143 C141 1.355 1_545 S
H144 C138 0.930 . S
H145 C142 0.930 . S
C146 C148 1.348 1_545 S
C146 C149 1.355 . S
C146 O176 1.325 1_545 S
N147 C150 1.314 1_545 S
N147 C151 1.279 . S
C148 C146 1.348 1_565 S
C148 C150 1.353 . S
C148 H190 0.929 . S
C149 C146 1.355 . S
C149 C151 1.358 . S
C149 H191 0.930 . S
C150 N147 1.314 1_565 S
C150 C148 1.353 . S
C150 H192 0.930 . S
C151 N147 1.279 . S
C151 C149 1.358 . S
C151 H193 0.930 . S
C152 C153 1.348 . S
C152 C154 1.355 1_545 S
C152 O177 1.325 . S
C153 C152 1.348 . S
C153 C155 1.353 . S
C153 H194 0.929 . S
C154 C152 1.355 1_565 S
C154 C156 1.358 . S
C154 H195 0.930 . S
C155 C153 1.353 . S
C155 N157 1.314 1_545 S
C155 H196 0.930 . S
C156 C154 1.358 . S
C156 N157 1.279 . S
C156 H197 0.930 . S
N157 C155 1.314 1_565 S
N157 C156 1.279 . S
C158 C160 1.353 . S
C158 N161 1.314 1_455 S
C158 H164 0.930 . S
C159 N161 1.279 . S
C159 C162 1.358 . S
C159 H165 0.930 . S
C160 C158 1.353 . S
C160 C163 1.348 . S
C160 H198 0.929 . S
N161 Li116 1.990 . S
N161 C158 1.314 1_655 S
N161 C159 1.279 . S
C162 C159 1.358 . S
C162 C163 1.355 1_655 S
C162 H199 0.930 . S
C163 C160 1.348 . S
C163 C162 1.355 1_455 S
H164 C158 0.930 . S
H165 C159 0.930 . S
C166 N167 1.314 1_655 S
C166 C168 1.353 . S
C166 H172 0.930 . S
N167 Li117 1.990 . S
N167 C166 1.314 1_455 S
N167 C170 1.279 . S
C168 C166 1.353 . S
C168 C171 1.348 1_655 S
C168 H200 0.929 . S
C169 C170 1.358 . S
C169 C171 1.355 . S
C169 H201 0.930 . S
C170 N167 1.279 . S
C170 C169 1.358 . S
C170 H173 0.930 . S
C171 C168 1.348 1_455 S
C171 C169 1.355 . S
H172 C166 0.930 . S
H173 C170 0.930 . S
O174 Li114 1.956 1_455 S
O174 Li115 1.970 1_545 S
O174 Li116 1.961 1_455 S
O174 C118 1.325 . S
O175 Li114 1.970 1_565 S
O175 Li115 1.956 1_655 S
O175 Li117 1.961 1_655 S
O175 C124 1.325 1_655 S
O176 Li114 1.961 1_565 S
O176 Li116 1.956 1_565 S
O176 Li117 1.970 1_655 S
O176 C146 1.325 1_565 S
O177 Li115 1.961 1_545 S
O177 Li116 1.970 1_455 S
O177 Li117 1.956 1_545 S
O177 C152 1.325 . S
H178 C120 0.929 . S
H179 C121 0.930 . S
H180 C122 0.930 . S
H181 C123 0.930 . S
H182 C125 0.930 . S
H183 C127 0.929 . S
H184 C128 0.930 . S
H185 C129 0.930 . S
H186 C132 0.930 . S
H187 C135 0.929 . S
H188 C140 0.929 . S
H189 C141 0.930 . S
H190 C148 0.929 . S
H191 C149 0.930 . S
H192 C150 0.930 . S
H193 C151 0.930 . S
H194 C153 0.929 . S
H195 C154 0.930 . S
H196 C155 0.930 . S
H197 C156 0.930 . S
H198 C160 0.929 . S
H199 C162 0.930 . S
H200 C168 0.929 . S
H201 C169 0.930 . S
C202 C203 1.170 . S
C202 C204 1.380 . S
C203 C202 1.170 . S
C204 C202 1.380 . S
C204 C205 1.171 . S
C205 C204 1.171 . S
C206 C207 1.170 . S
C206 C208 1.380 . S
C207 C206 1.170 . S
C208 C206 1.380 . S
C208 C209 1.170 . S
C209 C208 1.170 . S
C210 C211 1.170 . S
C210 C212 1.380 . S
C211 C210 1.170 . S
C212 C210 1.380 . S
C212 C213 1.170 . S
C213 C212 1.170 . S
C214 C215 1.170 . S
C214 C216 1.380 . S
C215 C214 1.170 . S
C216 C214 1.380 . S
C216 C217 1.170 . S
C217 C216 1.170 . S
C218 C219 1.170 . S
C218 C220 1.380 . S
C219 C218 1.170 . S
C220 C218 1.380 . S
C220 C221 1.170 1_565 S
C221 C220 1.170 1_545 S
C222 C223 1.170 . S
C222 C224 1.380 . S
C223 C222 1.170 . S
C224 C222 1.380 . S
C224 C225 1.170 . S
C225 C224 1.170 . S
C226 C227 1.170 . S
C226 C228 1.380 . S
C227 C226 1.170 . S
C228 C226 1.380 . S
C228 C229 1.170 . S
C229 C228 1.170 . S
C230 C231 1.170 . S
C230 C232 1.380 . S
C231 C230 1.170 . S
C232 C230 1.380 . S
C232 C233 1.170 . S
C233 C232 1.170 . S
C205 C75 1.415 1_565 S
C203 C5 1.409 . S
C209 C163 1.484 1_655 S
C207 C23 1.489 1_655 S
C213 C83 1.418 . S
C211 C3 1.426 1_545 S
C217 C171 1.493 1_655 S
C215 C14 1.485 1_655 S
C221 C143 1.493 . S
C219 C1 1.481 . S
C225 C46 1.427 1_655 S
C223 C16 1.418 1_655 S
C229 C134 1.481 1_565 S
C227 C10 1.491 . S
C231 C18 1.423 1_655 S
C233 C55 1.419 1_655 S
