# Generated by pormake.
# Topology pth, (4,4)-cn, num edge types: 1
# Building blocks:
#     Node 0, Type 0, BuildingBlock: QUQFOY_clean_sbu_1, # of connection points: 4
#     Node 1, Type 0, BuildingBlock: QUQFOY_clean_sbu_1, # of connection points: 4
#     Node 2, Type 0, BuildingBlock: QUQFOY_clean_sbu_1, # of connection points: 4
#     Node 3, Type 1, BuildingBlock: MUDLON_clean_sbu_0, # of connection points: 4
#     Node 4, Type 1, BuildingBlock: MUDLON_clean_sbu_0, # of connection points: 4
#     Node 5, Type 1, BuildingBlock: MUDLON_clean_sbu_0, # of connection points: 4
#     Edge 6, Type (0, 1), BuildingBlock: OJICUG_clean_linker_0, # of connection points: 2
#     Edge 7, Type (0, 1), BuildingBlock: OJICUG_clean_linker_0, # of connection points: 2
#     Edge 8, Type (0, 1), BuildingBlock: OJICUG_clean_linker_0, # of connection points: 2
#     Edge 9, Type (0, 1), BuildingBlock: OJICUG_clean_linker_0, # of connection points: 2
#     Edge 10, Type (0, 1), BuildingBlock: OJICUG_clean_linker_0, # of connection points: 2
#     Edge 11, Type (0, 1), BuildingBlock: OJICUG_clean_linker_0, # of connection points: 2
#     Edge 12, Type (0, 1), BuildingBlock: OJICUG_clean_linker_0, # of connection points: 2
#     Edge 13, Type (0, 1), BuildingBlock: OJICUG_clean_linker_0, # of connection points: 2
#     Edge 14, Type (0, 1), BuildingBlock: OJICUG_clean_linker_0, # of connection points: 2
#     Edge 15, Type (0, 1), BuildingBlock: OJICUG_clean_linker_0, # of connection points: 2
#     Edge 16, Type (0, 1), BuildingBlock: OJICUG_clean_linker_0, # of connection points: 2
#     Edge 17, Type (0, 1), BuildingBlock: OJICUG_clean_linker_0, # of connection points: 2
# Relax obj value: 0.041
# Max RMSD: 0.131
# Mean RMSD: 0.076
data_MOF--net-pth--node1-QUQFOY_clean_sbu_1--node2-MUDLON_clean_sbu_0--edge1-OJICUG_clean_linker_0
_symmetry_space_group_name_H-M    P1
_symmetry_Int_Tables_number       1
_symmetry_cell_setting            triclinic
loop_
_symmetry_equiv_pos_as_xyz
'x, y, z'
_cell_length_a     16.757184
_cell_length_b     17.279989
_cell_length_c     44.586579
_cell_angle_alpha  90.19277
_cell_angle_beta   90.128837
_cell_angle_gamma 119.90718
loop_
_atom_site_label
_atom_site_type_symbol
_atom_site_fract_x
_atom_site_fract_y
_atom_site_fract_z
_atom_type_partial_charge
O0 O 0.09196 0.17045 0.04853 0.0
Cd1 Cd 0.97347 0.10187 0.07314 0.0
Cd2 Cd 0.03742 0.98037 0.07818 0.0
O3 O 0.14243 0.07465 0.05197 0.0
O4 O 0.93751 0.18904 0.08812 0.0
O5 O 0.98141 0.11426 0.11778 0.0
C6 C 0.9551 0.17264 0.11479 0.0
C7 C 0.08015 0.90984 0.11468 0.0
C8 C 0.15143 0.14765 0.04229 0.0
C9 C 0.84927 0.9209 0.04903 0.0
O10 O 0.90917 0.90196 0.05857 0.0
O11 O 0.86135 0.99907 0.05205 0.0
O12 O 0.07975 0.89308 0.08652 0.0
O13 O 0.05668 0.96782 0.1224 0.0
O14 O 0.88992 0.07637 0.45202 0.0
Cd15 Cd 0.01047 0.12512 0.42824 0.0
Cd16 Cd 0.95183 0.94358 0.42266 0.0
O17 O 0.84437 0.93276 0.44841 0.0
O18 O 0.04505 0.24649 0.41331 0.0
O19 O 0.00588 0.12982 0.38353 0.0
C20 C 0.03044 0.21328 0.38655 0.0
C21 C 0.91276 0.83213 0.38597 0.0
C22 C 0.83224 0.99541 0.45802 0.0
C23 C 0.13631 0.06825 0.45353 0.0
O24 O 0.07879 0.99117 0.44336 0.0
O25 O 0.12228 0.13346 0.45036 0.0
O26 O 0.91267 0.816 0.41413 0.0
O27 O 0.93512 0.91245 0.37833 0.0
O28 O 0.85401 0.98623 0.72722 0.0
Cd29 Cd 0.94352 0.95669 0.7502 0.0
Cd30 Cd 0.0561 0.13508 0.73818 0.0
O31 O 0.94202 0.13102 0.71979 0.0
O32 O 0.86254 0.83326 0.76588 0.0
O33 O 0.9434 0.94985 0.79534 0.0
C34 C 0.88676 0.86523 0.7926 0.0
C35 C 0.1286 0.22409 0.77988 0.0
C36 C 0.86518 0.05964 0.71687 0.0
C37 C 0.10631 1.00644 0.71045 0.0
O38 O 0.1227 0.08667 0.71163 0.0
O39 O 0.04125 0.94549 0.72552 0.0
O40 O 0.14346 0.25812 0.75332 0.0
O41 O 0.07206 0.13936 0.78257 0.0
Mg42 Mg -0.00347 0.5489 0.25025 0.0
C43 C 0.00188 0.4161 0.28949 0.0
O44 O 0.92401 0.37237 0.27457 0.0
C45 C 0.10468 0.67126 0.1989 0.0
O46 O 0.0908 0.59581 0.18712 0.0
C47 C 0.98962 0.40958 0.21105 0.0
O48 O 0.06774 0.44133 0.22583 0.0
O49 O 0.93825 0.4432 0.21606 0.0
O50 O 0.0537 0.49928 0.28453 0.0
O51 O 0.90927 0.58901 0.27415 0.0
C52 C 0.88926 0.56886 0.30159 0.0
O53 O 0.90223 0.50641 0.31331 0.0
O54 O 0.08488 0.67266 0.22635 0.0
Mg55 Mg 0.4833 0.04371 0.58607 0.0
C56 C 0.39293 0.05873 0.53614 0.0
O57 O 0.3806 0.97771 0.53856 0.0
C58 C 0.60357 0.04029 0.62952 0.0
O59 O 0.56133 0.96307 0.61542 0.0
C60 C 0.34318 0.93873 0.63537 0.0
O61 O 0.41306 0.94316 0.65016 0.0
O62 O 0.35172 0.9582 0.60762 0.0
O63 O 0.44177 0.11651 0.55602 0.0
O64 O 0.54884 1.00073 0.55339 0.0
C65 C 0.54708 0.93115 0.54331 0.0
O66 O 0.49006 0.85247 0.55458 0.0
O67 O 0.58681 0.1014 0.6214 0.0
Mg68 Mg 0.50169 0.54841 0.91856 0.0
C69 C 0.36197 0.42808 0.87812 0.0
O70 O 0.39853 0.38491 0.8911 0.0
C71 C 0.58079 0.64732 0.97269 0.0
O72 O 0.58259 0.57234 0.97413 0.0
C73 C 0.43821 0.36943 0.95891 0.0
O74 O 0.49813 0.34913 0.94788 0.0
O75 O 0.43556 0.43737 0.94954 0.0
O76 O 0.39268 0.5098 0.88508 0.0
O77 O 0.62196 0.57942 0.8912 0.0
C78 C 0.69589 0.65353 0.89536 0.0
O79 O 0.70566 0.69791 0.92031 0.0
O80 O 0.54472 0.66104 0.94954 0.0
C81 C 0.91176 0.27883 0.13832 0.0
C82 C 0.95166 0.22412 0.14086 0.0
H83 H 0.8907 0.37978 0.15899 0.0
C84 C 0.99485 0.22441 0.16789 0.0
H85 H 0.87751 0.27964 0.11778 0.0
C86 C 0.00321 0.28222 0.19115 0.0
C87 C 0.9672 0.33987 0.18812 0.0
H88 H 0.02602 0.18297 0.17061 0.0
H89 H 0.04029 0.28358 0.21127 0.0
C90 C 0.91877 0.33577 0.1619 0.0
C91 C 0.73491 0.04313 0.4857 0.0
C92 C 0.75309 0.97492 0.47767 0.0
H93 H 0.65554 0.08236 0.51217 0.0
C94 C 0.6982 0.88917 0.48988 0.0
H95 H 0.77504 0.10964 0.47654 0.0
C96 C 0.62899 0.87325 0.51067 0.0
C97 C 0.61361 0.94282 0.51951 0.0
H98 H 0.71043 0.83507 0.48407 0.0
H99 H 0.58949 0.80744 0.52039 0.0
C100 C 0.66613 0.02729 0.50625 0.0
C101 C 0.87372 0.84195 0.84825 0.0
C102 C 0.84739 0.80702 0.81914 0.0
H103 H 0.84825 0.81992 0.89527 0.0
C104 C 0.77939 0.71679 0.8156 0.0
H105 H 0.92663 0.91084 0.85177 0.0
C106 C 0.73436 0.66435 0.84057 0.0
C107 C 0.75649 0.70105 0.86962 0.0
H108 H 0.75814 0.68748 0.79345 0.0
H109 H 0.67906 0.59654 0.83695 0.0
C110 C 0.82898 0.78949 0.87321 0.0
C111 C 0.09091 0.86838 0.16802 0.0
C112 C 0.10168 0.85969 0.13715 0.0
H113 H 0.08528 0.8166 0.21206 0.0
C114 C 0.12709 0.79739 0.12758 0.0
H115 H 0.0721 0.91624 0.17614 0.0
C116 C 0.135 0.74064 0.14809 0.0
C117 C 0.11772 0.74474 0.1787 0.0
H118 H 0.13716 0.78968 0.104 0.0
H119 H 0.15016 0.6905 0.13968 0.0
C120 C 0.09902 0.81153 0.18862 0.0
C121 C 0.25645 0.1447 0.49383 0.0
C122 C 0.21578 0.07883 0.47128 0.0
H123 H 0.34566 0.19059 0.53251 0.0
C124 C 0.24494 1.01613 0.46789 0.0
H125 H 0.23528 0.19405 0.4969 0.0
C126 C 0.308 1.01477 0.48789 0.0
C127 C 0.34295 0.0755 0.51201 0.0
H128 H 0.2161 0.96552 0.45046 0.0
H129 H 0.32596 0.96296 0.48524 0.0
C130 C 0.31963 0.14291 0.51417 0.0
C131 C 0.17672 0.23816 0.83354 0.0
C132 C 0.17877 0.27945 0.80629 0.0
H133 H 0.23291 0.25374 0.87768 0.0
C134 C 0.23357 0.37301 0.80416 0.0
H135 H 0.13495 0.16647 0.83604 0.0
C136 C 0.28884 0.42353 0.82839 0.0
C137 C 0.29103 0.38089 0.85485 0.0
H138 H 0.23603 0.40683 0.78349 0.0
H139 H 0.33369 0.4948 0.82579 0.0
C140 C 0.23276 0.28822 0.85743 0.0
C141 C 0.71143 0.97798 0.69199 0.0
C142 C 0.79154 0.05925 0.6983 0.0
H143 H 0.58964 0.90911 0.6654 0.0
C144 C 0.80411 0.13745 0.68418 0.0
H145 H 0.69886 0.91659 0.70257 0.0
C146 C 0.74039 0.13315 0.66281 0.0
C147 C 0.66407 0.05048 0.65509 0.0
H148 H 0.86498 0.20129 0.68867 0.0
H149 H 0.75336 0.19335 0.65126 0.0
C150 C 0.64887 0.97363 0.67054 0.0
C151 C 0.73666 0.76164 0.03854 0.0
C152 C 0.76818 0.85185 0.03261 0.0
H153 H 0.65025 0.62661 1.02491 0.0
C154 C 0.72754 0.87445 1.00907 0.0
H155 H 0.76572 0.74223 0.05679 0.0
C156 C 0.66161 0.80773 0.99028 0.0
C157 C 0.63496 0.71772 0.9951 0.0
H158 H 0.75069 0.94375 1.00407 0.0
H159 H 0.63548 0.82691 0.97117 0.0
C160 C 0.67031 0.69541 1.0202 0.0
C161 C 0.86693 0.67442 0.37297 0.0
C162 C 0.89235 0.76118 0.36345 0.0
H163 H 0.84379 0.54505 0.3608 0.0
C164 C 0.90357 0.78002 0.3326 0.0
H165 H 0.8565 0.65717 0.39652 0.0
C166 C 0.89565 0.71511 0.31197 0.0
C167 C 0.87663 0.63025 0.32183 0.0
H168 H 0.92241 0.84598 0.32452 0.0
H169 H 0.90958 0.73319 0.28855 0.0
C170 C 0.85915 0.6098 0.35243 0.0
C171 C 0.18803 1.02373 0.66226 0.0
C172 C 0.16095 0.98306 0.69041 0.0
H173 H 0.26354 0.03813 0.62212 0.0
C174 C 0.18616 0.92004 0.69907 0.0
H175 H 0.16838 0.07166 0.65495 0.0
C176 C 0.24228 0.90196 0.68051 0.0
C177 C 0.271 0.94414 0.65258 0.0
H178 H 0.16557 0.88754 0.72066 0.0
H179 H 0.26506 0.85677 0.68827 0.0
C180 C 0.24135 1.00346 0.64332 0.0
C181 C 0.28843 0.17673 1.01079 0.0
C182 C 0.22973 0.20561 1.02265 0.0
H183 H 0.40095 0.20575 0.98117 0.0
C184 C 0.24393 0.28991 1.01458 0.0
H185 H 0.27929 0.11203 1.01664 0.0
C186 C 0.31303 0.34303 0.99453 0.0
C187 C 0.36999 0.31345 0.98181 0.0
H188 H 0.20075 0.31475 1.02344 0.0
H189 H 0.32066 0.40718 0.98868 0.0
C190 C 0.35805 0.23026 0.99049 0.0
C191 C 0.99433 0.22628 0.33309 0.0
C192 C 0.03549 0.2679 0.36037 0.0
H193 H 0.95185 0.24128 0.28926 0.0
C194 C 0.07504 0.36119 0.36299 0.0
H195 H 0.96349 0.1547 0.33031 0.0
C196 C 0.06965 0.41119 0.33919 0.0
C197 C 0.02316 0.36832 0.31267 0.0
H198 H 0.10776 0.3952 0.38372 0.0
H199 H 0.09733 0.48233 0.34213 0.0
C200 C 0.98752 0.27587 0.3096 0.0
loop_
_geom_bond_atom_site_label_1
_geom_bond_atom_site_label_2
_geom_bond_distance
_geom_bond_site_symmetry_2
_ccdc_geom_bond_type
O0 Cd1 2.223 1_455 S
O0 C8 1.315 . S
Cd1 O0 2.223 1_655 S
Cd1 O4 2.297 . S
Cd1 O5 2.439 . S
Cd1 O11 2.240 1_545 S
Cd2 O3 2.240 1_565 S
Cd2 O10 2.223 1_455 S
Cd2 O12 2.297 . S
Cd2 O13 2.439 . S
O3 Cd2 2.240 1_545 S
O3 C8 1.279 . S
O4 Cd1 2.297 . S
O4 C6 1.247 . S
O5 Cd1 2.439 . S
O5 C6 1.208 . S
C6 O4 1.247 . S
C6 O5 1.208 . S
C7 O12 1.247 . S
C7 O13 1.208 . S
C8 O0 1.315 . S
C8 O3 1.279 . S
C9 O10 1.315 . S
C9 O11 1.279 . S
O10 Cd2 2.223 1_655 S
O10 C9 1.315 . S
O11 Cd1 2.240 1_565 S
O11 C9 1.279 . S
O12 Cd2 2.297 . S
O12 C7 1.247 . S
O13 Cd2 2.439 . S
O13 C7 1.208 . S
O14 Cd15 2.223 1_655 S
O14 C22 1.315 . S
Cd15 O14 2.223 1_455 S
Cd15 O18 2.297 . S
Cd15 O19 2.439 . S
Cd15 O25 2.240 . S
Cd16 O17 2.240 . S
Cd16 O24 2.223 1_655 S
Cd16 O26 2.297 . S
Cd16 O27 2.439 . S
O17 Cd16 2.240 . S
O17 C22 1.279 1_565 S
O18 Cd15 2.297 . S
O18 C20 1.247 . S
O19 Cd15 2.439 . S
O19 C20 1.208 . S
C20 O18 1.247 . S
C20 O19 1.208 . S
C21 O26 1.247 . S
C21 O27 1.208 . S
C22 O14 1.315 . S
C22 O17 1.279 1_545 S
C23 O24 1.315 . S
C23 O25 1.279 1_565 S
O24 Cd16 2.223 1_455 S
O24 C23 1.315 . S
O25 Cd15 2.240 . S
O25 C23 1.279 1_545 S
O26 Cd16 2.297 . S
O26 C21 1.247 . S
O27 Cd16 2.439 . S
O27 C21 1.208 . S
O28 Cd29 2.223 . S
O28 C36 1.315 . S
Cd29 O28 2.223 . S
Cd29 O32 2.297 . S
Cd29 O33 2.439 . S
Cd29 O39 2.240 1_655 S
Cd30 O31 2.240 1_455 S
Cd30 O38 2.223 . S
Cd30 O40 2.297 . S
Cd30 O41 2.439 . S
O31 Cd30 2.240 1_655 S
O31 C36 1.279 1_545 S
O32 Cd29 2.297 . S
O32 C34 1.247 . S
O33 Cd29 2.439 . S
O33 C34 1.208 . S
C34 O32 1.247 . S
C34 O33 1.208 . S
C35 O40 1.247 . S
C35 O41 1.208 . S
C36 O28 1.315 . S
C36 O31 1.279 1_565 S
C37 O38 1.315 . S
C37 O39 1.279 1_545 S
O38 Cd30 2.223 . S
O38 C37 1.315 . S
O39 Cd29 2.240 1_455 S
O39 C37 1.279 1_565 S
O40 Cd30 2.297 . S
O40 C35 1.247 . S
O41 Cd30 2.439 . S
O41 C35 1.208 . S
Mg42 O49 2.141 . S
Mg42 O50 2.048 . S
Mg42 O51 2.048 . S
Mg42 O54 2.141 . S
C43 O44 1.313 . S
C43 O50 1.195 1_655 S
O44 C43 1.313 . S
C45 O46 1.245 . S
C45 O54 1.289 1_655 S
O46 C45 1.245 . S
C47 O48 1.245 . S
C47 O49 1.289 1_655 S
O48 C47 1.245 . S
O49 Mg42 2.141 . S
O49 C47 1.289 1_455 S
O50 Mg42 2.048 . S
O50 C43 1.195 1_455 S
O51 Mg42 2.048 . S
O51 C52 1.195 1_455 S
C52 O51 1.195 1_655 S
C52 O53 1.313 . S
O53 C52 1.313 . S
O54 Mg42 2.141 . S
O54 C45 1.289 1_455 S
Mg55 O62 2.141 . S
Mg55 O63 2.048 . S
Mg55 O64 2.048 . S
Mg55 O67 2.141 . S
C56 O57 1.313 . S
C56 O63 1.195 1_565 S
O57 C56 1.313 . S
C58 O59 1.245 . S
C58 O67 1.289 1_565 S
O59 C58 1.245 . S
C60 O61 1.245 . S
C60 O62 1.289 1_565 S
O61 C60 1.245 . S
O62 Mg55 2.141 . S
O62 C60 1.289 1_545 S
O63 Mg55 2.048 . S
O63 C56 1.195 1_545 S
O64 Mg55 2.048 . S
O64 C65 1.195 1_545 S
C65 O64 1.195 1_565 S
C65 O66 1.313 . S
O66 C65 1.313 . S
O67 Mg55 2.141 . S
O67 C58 1.289 1_545 S
Mg68 O75 2.141 . S
Mg68 O76 2.048 . S
Mg68 O77 2.048 . S
Mg68 O80 2.141 . S
C69 O70 1.313 . S
C69 O76 1.195 . S
O70 C69 1.313 . S
C71 O72 1.245 . S
C71 O80 1.289 . S
O72 C71 1.245 . S
C73 O74 1.245 . S
C73 O75 1.289 . S
O74 C73 1.245 . S
O75 Mg68 2.141 . S
O75 C73 1.289 . S
O76 Mg68 2.048 . S
O76 C69 1.195 . S
O77 Mg68 2.048 . S
O77 C78 1.195 . S
C78 O77 1.195 . S
C78 O79 1.313 . S
O79 C78 1.313 . S
O80 Mg68 2.141 . S
O80 C71 1.289 . S
C81 C82 1.395 . S
C81 H85 0.950 . S
C81 C90 1.390 . S
C82 C81 1.395 . S
C82 C84 1.384 1_655 S
H83 C90 0.950 . S
C84 C82 1.384 1_455 S
C84 C86 1.390 . S
C84 H88 0.950 . S
H85 C81 0.950 . S
C86 C84 1.390 . S
C86 C87 1.383 1_455 S
C86 H89 0.950 . S
C87 C86 1.383 1_655 S
C87 C90 1.389 . S
H88 C84 0.950 . S
H89 C86 0.950 . S
C90 C81 1.390 . S
C90 H83 0.950 . S
C90 C87 1.389 . S
C91 C92 1.387 . S
C91 H95 0.950 . S
C91 C100 1.390 . S
C92 C91 1.387 . S
C92 C94 1.387 1_545 S
H93 C100 0.950 . S
C94 C92 1.387 1_565 S
C94 C96 1.390 . S
C94 H98 0.950 . S
H95 C91 0.950 . S
C96 C94 1.390 . S
C96 C97 1.387 1_565 S
C96 H99 0.950 . S
C97 C96 1.387 1_545 S
C97 C100 1.387 . S
H98 C94 0.950 . S
H99 C96 0.950 . S
C100 C91 1.390 . S
C100 H93 0.950 . S
C100 C97 1.387 . S
C101 C102 1.387 . S
C101 H105 0.950 . S
C101 C110 1.390 . S
C102 C101 1.387 . S
C102 C104 1.387 . S
H103 C110 0.950 . S
C104 C102 1.387 . S
C104 C106 1.390 . S
C104 H108 0.950 . S
H105 C101 0.950 . S
C106 C104 1.390 . S
C106 C107 1.387 . S
C106 H109 0.950 . S
C107 C106 1.387 . S
C107 C110 1.387 . S
H108 C104 0.950 . S
H109 C106 0.950 . S
C110 C101 1.390 . S
C110 H103 0.950 . S
C110 C107 1.387 . S
C111 C112 1.387 . S
C111 H115 0.950 . S
C111 C120 1.390 . S
C112 C111 1.387 . S
C112 C114 1.387 1_455 S
H113 C120 0.950 . S
C114 C112 1.387 1_655 S
C114 C116 1.390 . S
C114 H118 0.950 . S
H115 C111 0.950 . S
C116 C114 1.390 . S
C116 C117 1.387 1_655 S
C116 H119 0.950 . S
C117 C116 1.387 1_455 S
C117 C120 1.387 . S
H118 C114 0.950 . S
H119 C116 0.950 . S
C120 C111 1.390 . S
C120 H113 0.950 . S
C120 C117 1.387 . S
C121 C122 1.387 1_545 S
C121 H125 0.950 . S
C121 C130 1.390 . S
C122 C121 1.387 1_565 S
C122 C124 1.387 . S
H123 C130 0.950 . S
C124 C122 1.387 . S
C124 C126 1.390 . S
C124 H128 0.950 . S
H125 C121 0.950 . S
C126 C124 1.390 . S
C126 C127 1.387 . S
C126 H129 0.950 . S
C127 C126 1.387 . S
C127 C130 1.387 1_565 S
H128 C124 0.950 . S
H129 C126 0.950 . S
C130 C121 1.390 . S
C130 H123 0.950 . S
C130 C127 1.387 1_545 S
C131 C132 1.387 . S
C131 H135 0.950 . S
C131 C140 1.390 . S
C132 C131 1.387 . S
C132 C134 1.387 . S
H133 C140 0.950 . S
C134 C132 1.387 . S
C134 C136 1.390 . S
C134 H138 0.950 . S
H135 C131 0.950 . S
C136 C134 1.390 . S
C136 C137 1.387 . S
C136 H139 0.950 . S
C137 C136 1.387 . S
C137 C140 1.387 . S
H138 C134 0.950 . S
H139 C136 0.950 . S
C140 C131 1.390 . S
C140 H133 0.950 . S
C140 C137 1.387 . S
C141 C142 1.387 . S
C141 H145 0.950 . S
C141 C150 1.390 . S
C142 C141 1.387 . S
C142 C144 1.387 1_565 S
H143 C150 0.950 . S
C144 C142 1.387 1_545 S
C144 C146 1.390 . S
C144 H148 0.950 . S
H145 C141 0.950 . S
C146 C144 1.390 . S
C146 C147 1.387 1_545 S
C146 H149 0.950 . S
C147 C146 1.387 1_565 S
C147 C150 1.387 . S
H148 C144 0.950 . S
H149 C146 0.950 . S
C150 C141 1.390 . S
C150 H143 0.950 . S
C150 C147 1.387 . S
C151 C152 1.387 . S
C151 H155 0.950 . S
C151 C160 1.390 . S
C152 C151 1.387 . S
C152 C154 1.387 1_556 S
H153 C160 0.950 . S
C154 C152 1.387 1_554 S
C154 C156 1.390 1_554 S
C154 H158 0.950 . S
H155 C151 0.950 . S
C156 C154 1.390 1_556 S
C156 C157 1.387 . S
C156 H159 0.950 . S
C157 C156 1.387 . S
C157 C160 1.387 . S
H158 C154 0.950 . S
H159 C156 0.950 . S
C160 C151 1.390 . S
C160 H153 0.950 . S
C160 C157 1.387 . S
C161 C162 1.387 1_655 S
C161 H165 0.950 . S
C161 C170 1.390 . S
C162 C161 1.387 1_455 S
C162 C164 1.387 . S
H163 C170 0.950 . S
C164 C162 1.387 . S
C164 C166 1.390 . S
C164 H168 0.950 . S
H165 C161 0.950 . S
C166 C164 1.390 . S
C166 C167 1.387 . S
C166 H169 0.950 . S
C167 C166 1.387 . S
C167 C170 1.387 1_455 S
H168 C164 0.950 . S
H169 C166 0.950 . S
C170 C161 1.390 . S
C170 H163 0.950 . S
C170 C167 1.387 1_655 S
C171 C172 1.387 . S
C171 H175 0.950 . S
C171 C180 1.390 . S
C172 C171 1.387 . S
C172 C174 1.387 1_545 S
H173 C180 0.950 . S
C174 C172 1.387 1_565 S
C174 C176 1.390 . S
C174 H178 0.950 . S
H175 C171 0.950 . S
C176 C174 1.390 . S
C176 C177 1.387 1_565 S
C176 H179 0.950 . S
C177 C176 1.387 1_545 S
C177 C180 1.387 . S
H178 C174 0.950 . S
H179 C176 0.950 . S
C180 C171 1.390 . S
C180 H173 0.950 . S
C180 C177 1.387 . S
C181 C182 1.387 . S
C181 H185 0.950 . S
C181 C190 1.390 . S
C182 C181 1.387 . S
C182 C184 1.387 1_556 S
H183 C190 0.950 . S
C184 C182 1.387 1_554 S
C184 C186 1.390 1_554 S
C184 H188 0.950 . S
H185 C181 0.950 . S
C186 C184 1.390 1_556 S
C186 C187 1.387 . S
C186 H189 0.950 . S
C187 C186 1.387 . S
C187 C190 1.387 . S
H188 C184 0.950 . S
H189 C186 0.950 . S
C190 C181 1.390 . S
C190 H183 0.950 . S
C190 C187 1.387 . S
C191 C192 1.387 1_455 S
C191 H195 0.950 . S
C191 C200 1.390 . S
C192 C191 1.387 1_655 S
C192 C194 1.387 . S
H193 C200 0.950 . S
C194 C192 1.387 . S
C194 C196 1.390 . S
C194 H198 0.950 . S
H195 C191 0.950 . S
C196 C194 1.390 . S
C196 C197 1.387 . S
C196 H199 0.950 . S
C197 C196 1.387 . S
C197 C200 1.387 1_655 S
H198 C194 0.950 . S
H199 C196 0.950 . S
C200 C191 1.390 . S
C200 H193 0.950 . S
C200 C197 1.387 1_455 S
C87 C47 1.444 . S
C82 C6 1.439 . S
C92 C22 1.538 . S
C97 C65 1.555 1_545 S
C102 C34 1.347 . S
C107 C78 1.367 . S
C112 C7 1.442 . S
C117 C45 1.443 1_455 S
C127 C56 1.551 . S
C122 C23 1.536 . S
C132 C35 1.349 . S
C137 C69 1.355 . S
C147 C58 1.490 . S
C142 C36 1.496 . S
C152 C9 1.647 1_556 S
C157 C71 1.671 . S
C167 C52 1.501 1_455 S
C162 C21 1.489 1_455 S
C177 C60 1.500 1_545 S
C172 C37 1.494 . S
C187 C73 1.669 . S
C182 C8 1.645 1_556 S
C192 C20 1.487 1_655 S
C197 C43 1.496 . S
