# Generated by pormake.
# Topology pth, (4,4)-cn, num edge types: 1
# Building blocks:
#     Node 0, Type 0, BuildingBlock: TATPOV_clean_sbu_0, # of connection points: 4
#     Node 1, Type 0, BuildingBlock: TATPOV_clean_sbu_0, # of connection points: 4
#     Node 2, Type 0, BuildingBlock: TATPOV_clean_sbu_0, # of connection points: 4
#     Node 3, Type 1, BuildingBlock: NAWXER_clean_sbu_0, # of connection points: 4
#     Node 4, Type 1, BuildingBlock: NAWXER_clean_sbu_0, # of connection points: 4
#     Node 5, Type 1, BuildingBlock: NAWXER_clean_sbu_0, # of connection points: 4
#     Edge 6, Type (0, 1), BuildingBlock: OJICUG_clean_linker_0, # of connection points: 2
#     Edge 7, Type (0, 1), BuildingBlock: OJICUG_clean_linker_0, # of connection points: 2
#     Edge 8, Type (0, 1), BuildingBlock: OJICUG_clean_linker_0, # of connection points: 2
#     Edge 9, Type (0, 1), BuildingBlock: OJICUG_clean_linker_0, # of connection points: 2
#     Edge 10, Type (0, 1), BuildingBlock: OJICUG_clean_linker_0, # of connection points: 2
#     Edge 11, Type (0, 1), BuildingBlock: OJICUG_clean_linker_0, # of connection points: 2
#     Edge 12, Type (0, 1), BuildingBlock: OJICUG_clean_linker_0, # of connection points: 2
#     Edge 13, Type (0, 1), BuildingBlock: OJICUG_clean_linker_0, # of connection points: 2
#     Edge 14, Type (0, 1), BuildingBlock: OJICUG_clean_linker_0, # of connection points: 2
#     Edge 15, Type (0, 1), BuildingBlock: OJICUG_clean_linker_0, # of connection points: 2
#     Edge 16, Type (0, 1), BuildingBlock: OJICUG_clean_linker_0, # of connection points: 2
#     Edge 17, Type (0, 1), BuildingBlock: OJICUG_clean_linker_0, # of connection points: 2
# Relax obj value: 0.049
# Max RMSD: 0.173
# Mean RMSD: 0.098
data_MOF--net-pth--node1-TATPOV_clean_sbu_0--node2-NAWXER_clean_sbu_0--edge1-OJICUG_clean_linker_0
_symmetry_space_group_name_H-M    P1
_symmetry_Int_Tables_number       1
_symmetry_cell_setting            triclinic
loop_
_symmetry_equiv_pos_as_xyz
'x, y, z'
_cell_length_a     16.831688
_cell_length_b     16.711748
_cell_length_c     41.354242
_cell_angle_alpha  92.80248
_cell_angle_beta   92.331584
_cell_angle_gamma 121.09712
loop_
_atom_site_label
_atom_site_type_symbol
_atom_site_fract_x
_atom_site_fract_y
_atom_site_fract_z
_atom_type_partial_charge
Zn0 Zn 0.23055 0.07254 0.01342 0.0
Zn1 Zn 0.10884 0.1111 0.03841 0.0
O2 O 0.15056 0.05061 0.07198 0.0
O3 O 0.26261 0.03278 0.05483 0.0
O4 O 0.05009 0.16259 0.06764 0.0
O5 O 0.30725 0.2053 7e-05 0.0
O6 O 0.19764 0.22933 0.01591 0.0
C7 C 0.20801 0.02344 0.07644 0.0
C8 C 0.03211 0.95578 0.98654 0.0
O9 O 0.01534 0.0068 0.00564 0.0
O10 O 0.11426 0.97131 0.98562 0.0
C11 C 1.003 0.20006 0.06068 0.0
O12 O 0.97561 0.1977 0.03027 0.0
C13 C 0.27355 0.25754 0.00268 0.0
Zn14 Zn 0.19834 0.14038 0.32568 0.0
Zn15 Zn 0.07707 0.11493 0.36666 0.0
O16 O 0.17896 0.10859 0.39419 0.0
O17 O 0.27074 0.10966 0.35759 0.0
O18 O 0.99301 0.11823 0.39998 0.0
O19 O 0.2325 0.27123 0.31655 0.0
O20 O 0.10511 0.2289 0.34112 0.0
C21 C 0.24667 0.09947 0.3864 0.0
C22 C 0.01897 0.97237 0.31006 0.0
O23 O 1.00184 0.99011 0.33839 0.0
O24 O 0.09341 0.0307 0.29802 0.0
C25 C 0.99615 0.19273 0.41094 0.0
O26 O 0.05656 0.27366 0.40044 0.0
C27 C 0.16843 0.28551 0.32394 0.0
Zn28 Zn 0.09801 0.88623 0.71789 0.0
Zn29 Zn 0.04697 -0.00233 0.69673 0.0
O30 O 0.13425 0.99147 0.66462 0.0
O31 O 0.16073 0.88137 0.67786 0.0
O32 O 0.97072 0.0322 0.66829 0.0
O33 O 0.9698 0.78387 0.72883 0.0
O34 O 0.93852 0.89206 0.71821 0.0
C35 C 0.17394 0.94517 0.65961 0.0
C36 C 0.18371 0.079 0.75232 0.0
O37 O 0.13349 0.09452 0.73263 0.0
O38 O 0.17795 -3e-05 0.7506 0.0
C39 C 0.91575 0.96266 0.64813 0.0
O40 O 0.92152 0.88712 0.64746 0.0
C41 C 0.91393 0.81322 0.72883 0.0
C42 C 0.96507 0.65876 0.23784 0.0
C43 C 1.00037 0.46211 0.15643 0.0
O44 O 0.0508 0.68493 0.2354 0.0
Zn45 Zn 0.12894 0.64123 0.20692 0.0
O46 O 0.90141 0.5887 0.22017 0.0
Zn47 Zn 0.98389 0.56209 0.19737 0.0
O48 O 0.04114 0.5129 0.2346 0.0
O49 O 0.19302 0.61258 0.23873 0.0
O50 O 0.92672 0.45976 0.16366 0.0
O51 O 0.07894 0.52517 0.17075 0.0
O52 O 0.2063 0.74914 0.18402 0.0
O53 O 0.05638 0.68568 0.1706 0.0
C54 C 0.12275 0.53972 0.24761 0.0
C55 C 0.14123 0.75047 0.16801 0.0
C56 C 0.63955 0.97106 0.56257 0.0
C57 C 0.44063 0.00226 0.47901 0.0
O58 O 0.58102 0.90316 0.54248 0.0
Zn59 Zn 0.53426 0.97278 0.51925 0.0
O60 O 0.64778 0.05131 0.56165 0.0
Zn61 Zn 0.59791 0.12429 0.53602 0.0
O62 O 0.53372 0.15156 0.57005 0.0
O63 O 0.46713 7e-05 0.55567 0.0
O64 O 0.49535 0.07543 0.49768 0.0
O65 O 0.44095 0.92669 0.48173 0.0
O66 O 0.6549 0.06426 0.49829 0.0
O67 O 0.71307 0.21281 0.51484 0.0
C68 C 0.47003 0.06674 0.57317 0.0
C69 C 0.71817 0.15016 0.49766 0.0
C70 C 0.46367 0.52633 0.91586 0.0
C71 C 0.63097 0.64282 0.81708 0.0
O72 O 0.45163 0.5803 0.89816 0.0
Zn73 Zn 0.54104 0.59215 0.86598 0.0
O74 O 0.51825 0.49839 0.90774 0.0
Zn75 Zn 0.60741 0.50788 0.87261 0.0
O76 O 0.72673 0.56822 0.89863 0.0
O77 O 0.66708 0.65873 0.89542 0.0
O78 O 0.64401 0.58532 0.83217 0.0
O79 O 0.578 0.66959 0.82819 0.0
O80 O 0.46835 0.45618 0.84262 0.0
O81 O 0.54066 0.37974 0.85202 0.0
C82 C 0.73123 0.64545 0.90629 0.0
C83 C 0.47225 0.38203 0.83863 0.0
C84 C 0.92868 0.28677 0.08301 0.0
C85 C 0.99603 0.26123 0.08611 0.0
H86 H 0.87584 0.36942 0.10339 0.0
C87 C 0.06215 0.30001 0.11299 0.0
H88 H 0.87702 0.25811 0.06253 0.0
C89 C 0.06303 0.36506 0.13566 0.0
C90 C 0.99643 0.39128 0.13251 0.0
H91 H 0.11551 0.2825 0.11602 0.0
H92 H 0.11605 0.39487 0.15574 0.0
C93 C 0.92803 0.3503 0.10633 0.0
C94 C 0.91939 0.26384 0.44307 0.0
C95 C 0.93107 0.18756 0.43504 0.0
H96 H 0.8426 0.31304 0.46949 0.0
C97 C 0.87815 0.10416 0.44986 0.0
H98 H 0.95979 0.32946 0.43215 0.0
C99 C 0.81277 0.09543 0.4711 0.0
C100 C 0.7973 0.16947 0.47813 0.0
H101 H 0.88622 0.04463 0.44477 0.0
H102 H 0.77274 0.029 0.48164 0.0
C103 C 0.85281 0.25487 0.46452 0.0
C104 C 0.78475 0.81166 0.75781 0.0
C105 C 0.82652 0.76324 0.74528 0.0
H106 H 0.68869 0.81143 0.79068 0.0
C107 C 0.79063 0.66998 0.7521 0.0
H108 H 0.81076 0.88378 0.75283 0.0
C109 C 0.72018 0.62859 0.77319 0.0
C110 C 0.68484 0.67985 0.7884 0.0
H111 H 0.82016 0.6304 0.74246 0.0
H112 H 0.69745 0.55784 0.77916 0.0
C113 C 0.71455 0.77034 0.77938 0.0
C114 C 0.11386 0.9203 0.11865 0.0
C115 C 0.19804 0.96503 0.10355 0.0
H116 H 0.02939 0.81612 0.1503 0.0
C117 C 0.2661 0.94292 0.11154 0.0
H118 H 0.05962 0.93515 0.11291 0.0
C119 C 0.24893 0.87515 0.13333 0.0
C120 C 0.16261 0.82681 0.14688 0.0
H121 H 0.33148 0.97597 0.10025 0.0
H122 H 0.30178 0.85803 0.13856 0.0
C123 C 0.09597 0.85123 0.13979 0.0
C124 C 0.33999 0.02514 0.39944 0.0
C125 C 0.292 0.06892 0.41013 0.0
H126 H 0.42212 0.96561 0.4131 0.0
C127 C 0.28476 0.07965 0.44353 0.0
H128 H 0.3455 0.01448 0.37377 0.0
C129 C 0.32852 0.05171 0.4658 0.0
C130 C 0.37833 0.01025 0.45516 0.0
H131 H 0.24769 0.1122 0.45252 0.0
H132 H 0.32596 0.06521 0.49153 0.0
C133 C 0.38229 0.9954 0.4218 0.0
C134 C 0.32043 0.14215 0.79342 0.0
C135 C 0.25413 0.15429 0.77594 0.0
H136 H 0.44208 0.2046 0.8268 0.0
C137 C 0.25911 0.24046 0.78004 0.0
H138 H 0.31875 0.07649 0.79072 0.0
C139 C 0.32942 0.31331 0.80073 0.0
C140 C 0.39699 0.3021 0.8177 0.0
H141 H 0.20934 0.25217 0.767 0.0
H142 H 0.33133 0.37914 0.80299 0.0
C143 C 0.39143 0.21551 0.81401 0.0
C144 C 0.78487 0.88612 0.60424 0.0
C145 C 0.84325 0.96324 0.62674 0.0
H146 H 0.67382 0.82705 0.5664 0.0
C147 C 0.83014 0.03945 0.62899 0.0
H148 H 0.79278 0.8258 0.60202 0.0
C149 C 0.76162 0.03952 0.60886 0.0
C150 C 0.70448 0.96355 0.5858 0.0
H151 H 0.87306 0.0994 0.64621 0.0
H152 H 0.75458 0.10037 0.61114 0.0
C153 C 0.71614 0.88627 0.58395 0.0
C154 C 0.96831 0.80607 0.95095 0.0
C155 C 0.95543 0.87554 0.96615 0.0
H156 H 0.90696 0.67736 0.92041 0.0
C157 C 0.86795 0.86639 0.9623 0.0
H158 H 0.03487 0.81072 0.95371 0.0
C159 C 0.79548 0.79065 0.94324 0.0
C160 C 0.80826 0.72155 0.9278 0.0
H161 H 0.85553 0.91822 0.97377 0.0
H162 H 0.72907 0.78642 0.94059 0.0
C163 C 0.89509 0.72931 0.9321 0.0
C164 C 0.96599 0.80436 0.30959 0.0
C165 C 0.9668 0.87733 0.29383 0.0
H166 H 0.96596 0.67596 0.30354 0.0
C167 C 0.94587 0.86604 0.26011 0.0
H168 H 0.98419 0.81269 0.33548 0.0
C169 C 0.93351 0.78712 0.24203 0.0
C170 C 0.94396 0.71986 0.25742 0.0
H171 H 0.94798 0.9223 0.24745 0.0
H172 H 0.92558 0.78366 0.21576 0.0
C173 C 0.95626 0.72661 0.29137 0.0
C174 C 0.28096 0.9181 0.62715 0.0
C175 C 0.24611 0.9755 0.63598 0.0
H176 H 0.37961 0.90301 0.601 0.0
C177 C 0.2878 0.06598 0.62474 0.0
H178 H 0.25131 0.84866 0.63561 0.0
C179 C 0.36328 0.09832 0.60525 0.0
C180 C 0.39726 0.04012 0.59632 0.0
H181 H 0.2634 0.11259 0.63156 0.0
H182 H 0.39363 0.16768 0.59669 0.0
C183 C 0.35507 0.94976 0.60747 0.0
C184 C 0.41589 0.40506 0.99142 0.0
C185 C 0.31896 0.3472 0.98748 0.0
H186 H 0.53799 0.5138 0.97249 0.0
C187 C 0.26858 0.36728 0.96464 0.0
H188 H 0.45603 0.39132 0.009 0.0
C189 C 0.31576 0.43697 0.9432 0.0
C190 C 0.41341 0.48763 0.94492 0.0
H191 H 0.19351 0.32303 0.96118 0.0
H192 H 0.27637 0.4438 0.92329 0.0
C193 C 0.46256 0.47559 0.97067 0.0
C194 C 0.07268 0.35166 0.30489 0.0
C195 C 0.15989 0.35944 0.30889 0.0
H196 H 0.99207 0.40203 0.282 0.0
C197 C 0.23615 0.43239 0.29511 0.0
H198 H 0.01244 0.29592 0.31515 0.0
C199 C 0.22467 0.49376 0.27652 0.0
C200 C 0.13631 0.48241 0.27081 0.0
H201 H 0.3042 0.4403 0.29784 0.0
H202 H 0.28439 0.54746 0.2654 0.0
C203 C 0.0608 0.41202 0.28576 0.0
loop_
_geom_bond_atom_site_label_1
_geom_bond_atom_site_label_2
_geom_bond_distance
_geom_bond_site_symmetry_2
_ccdc_geom_bond_type
Zn0 O3 2.013 1_556 S
Zn0 O5 2.062 1_565 S
Zn0 O10 2.075 . S
Zn1 O2 1.962 . S
Zn1 O4 1.986 . S
Zn1 O6 1.996 . S
Zn1 O9 1.943 . S
O2 Zn1 1.962 . S
O2 C7 1.254 1_545 S
O3 Zn0 2.013 1_554 S
O3 C7 1.269 . S
O4 Zn1 1.986 . S
O4 C11 1.262 . S
O5 Zn0 2.062 1_545 S
O5 C13 1.260 . S
O6 Zn1 1.996 . S
O6 C13 1.257 1_554 S
C7 O2 1.254 1_565 S
C7 O3 1.269 . S
C8 O9 1.249 1_666 S
C8 O10 1.270 1_655 S
O9 Zn1 1.943 . S
O9 C8 1.249 1_444 S
O10 Zn0 2.075 . S
O10 C8 1.270 1_455 S
C11 O4 1.262 . S
C11 O12 1.232 . S
O12 C11 1.232 . S
C13 O5 1.260 . S
C13 O6 1.257 1_556 S
Zn14 O17 2.031 . S
Zn14 O19 2.049 . S
Zn14 O24 2.067 . S
Zn15 O16 1.962 . S
Zn15 O18 1.986 1_455 S
Zn15 O20 1.996 . S
Zn15 O23 1.943 1_445 S
O16 Zn15 1.962 . S
O16 C21 1.254 . S
O17 Zn14 2.031 . S
O17 C21 1.269 . S
O18 Zn15 1.986 1_655 S
O18 C25 1.262 . S
O19 Zn14 2.049 . S
O19 C27 1.260 . S
O20 Zn15 1.996 . S
O20 C27 1.257 . S
C21 O16 1.254 . S
C21 O17 1.269 . S
C22 O23 1.249 1_455 S
C22 O24 1.270 1_565 S
O23 Zn15 1.943 1_665 S
O23 C22 1.249 1_655 S
O24 Zn14 2.067 . S
O24 C22 1.270 1_545 S
C25 O18 1.262 . S
C25 O26 1.232 . S
O26 C25 1.232 . S
C27 O19 1.260 . S
C27 O20 1.257 . S
Zn28 O31 2.031 1_565 S
Zn28 O33 2.049 . S
Zn28 O38 2.067 1_565 S
Zn29 O30 1.962 1_545 S
Zn29 O32 1.986 1_455 S
Zn29 O34 1.996 1_445 S
Zn29 O37 1.943 . S
O30 Zn29 1.962 1_565 S
O30 C35 1.254 1_565 S
O31 Zn28 2.031 1_545 S
O31 C35 1.269 . S
O32 Zn29 1.986 1_655 S
O32 C39 1.262 . S
O33 Zn28 2.049 . S
O33 C41 1.260 1_455 S
O34 Zn29 1.996 1_665 S
O34 C41 1.257 . S
C35 O30 1.254 1_545 S
C35 O31 1.269 . S
C36 O37 1.249 . S
C36 O38 1.270 . S
O37 Zn29 1.943 . S
O37 C36 1.249 . S
O38 Zn28 2.067 1_545 S
O38 C36 1.270 . S
C39 O32 1.262 . S
C39 O40 1.232 1_655 S
O40 C39 1.232 1_455 S
C41 O33 1.260 1_655 S
C41 O34 1.257 . S
C42 O44 1.247 . S
C42 O46 1.258 1_455 S
C43 O50 1.247 . S
C43 O51 1.258 . S
O44 C42 1.247 . S
O44 Zn45 2.028 . S
Zn45 O44 2.028 . S
Zn45 O49 2.035 . S
Zn45 O51 2.035 . S
Zn45 O52 2.028 . S
O46 C42 1.258 1_655 S
O46 Zn47 2.035 . S
Zn47 O46 2.035 . S
Zn47 O48 2.028 . S
Zn47 O50 2.028 1_655 S
Zn47 O53 2.035 1_655 S
O48 Zn47 2.028 . S
O48 C54 1.247 1_655 S
O49 Zn45 2.035 . S
O49 C54 1.258 . S
O50 C43 1.247 . S
O50 Zn47 2.028 1_455 S
O51 C43 1.258 . S
O51 Zn45 2.035 . S
O52 Zn45 2.028 . S
O52 C55 1.247 . S
O53 Zn47 2.035 1_455 S
O53 C55 1.258 . S
C54 O48 1.247 1_455 S
C54 O49 1.258 . S
C55 O52 1.247 . S
C55 O53 1.258 . S
C56 O58 1.247 1_545 S
C56 O60 1.258 . S
C57 O64 1.247 . S
C57 O65 1.258 1_545 S
O58 C56 1.247 1_565 S
O58 Zn59 2.028 . S
Zn59 O58 2.028 . S
Zn59 O63 2.035 . S
Zn59 O65 2.035 . S
Zn59 O66 2.028 . S
O60 C56 1.258 . S
O60 Zn61 2.035 . S
Zn61 O60 2.035 . S
Zn61 O62 2.028 . S
Zn61 O64 2.028 . S
Zn61 O67 2.035 . S
O62 Zn61 2.028 . S
O62 C68 1.247 . S
O63 Zn59 2.035 . S
O63 C68 1.258 1_565 S
O64 C57 1.247 . S
O64 Zn61 2.028 . S
O65 C57 1.258 1_565 S
O65 Zn59 2.035 . S
O66 Zn59 2.028 . S
O66 C69 1.247 1_565 S
O67 Zn61 2.035 . S
O67 C69 1.258 . S
C68 O62 1.247 . S
C68 O63 1.258 1_545 S
C69 O66 1.247 1_545 S
C69 O67 1.258 . S
C70 O72 1.247 . S
C70 O74 1.258 . S
C71 O78 1.247 . S
C71 O79 1.258 . S
O72 C70 1.247 . S
O72 Zn73 2.028 . S
Zn73 O72 2.028 . S
Zn73 O77 2.035 . S
Zn73 O79 2.035 . S
Zn73 O80 2.028 . S
O74 C70 1.258 . S
O74 Zn75 2.035 . S
Zn75 O74 2.035 . S
Zn75 O76 2.028 . S
Zn75 O78 2.028 . S
Zn75 O81 2.035 . S
O76 Zn75 2.028 . S
O76 C82 1.247 . S
O77 Zn73 2.035 . S
O77 C82 1.258 . S
O78 C71 1.247 . S
O78 Zn75 2.028 . S
O79 C71 1.258 . S
O79 Zn73 2.035 . S
O80 Zn73 2.028 . S
O80 C83 1.247 . S
O81 Zn75 2.035 . S
O81 C83 1.258 . S
C82 O76 1.247 . S
C82 O77 1.258 . S
C83 O80 1.247 . S
C83 O81 1.258 . S
C84 C85 1.387 . S
C84 H88 0.950 . S
C84 C93 1.390 . S
C85 C84 1.387 . S
C85 C87 1.387 . S
H86 C93 0.950 . S
C87 C85 1.387 . S
C87 C89 1.390 . S
C87 H91 0.950 . S
H88 C84 0.950 . S
C89 C87 1.390 . S
C89 C90 1.387 . S
C89 H92 0.950 . S
C90 C89 1.387 . S
C90 C93 1.387 . S
H91 C87 0.950 . S
H92 C89 0.950 . S
C93 C84 1.390 . S
C93 H86 0.950 . S
C93 C90 1.387 . S
C94 C95 1.387 1_565 S
C94 H98 0.950 . S
C94 C103 1.390 . S
C95 C94 1.387 1_545 S
C95 C97 1.387 . S
H96 C103 0.950 . S
C97 C95 1.387 . S
C97 C99 1.390 . S
C97 H101 0.950 . S
H98 C94 0.950 . S
C99 C97 1.390 . S
C99 C100 1.387 . S
C99 H102 0.950 . S
C100 C99 1.387 . S
C100 C103 1.387 1_545 S
H101 C97 0.950 . S
H102 C99 0.950 . S
C103 C94 1.390 . S
C103 H96 0.950 . S
C103 C100 1.387 1_565 S
C104 C105 1.387 . S
C104 H108 0.950 . S
C104 C113 1.390 . S
C105 C104 1.387 . S
C105 C107 1.387 . S
H106 C113 0.950 . S
C107 C105 1.387 . S
C107 C109 1.390 . S
C107 H111 0.950 . S
H108 C104 0.950 . S
C109 C107 1.390 . S
C109 C110 1.387 . S
C109 H112 0.950 . S
C110 C109 1.387 . S
C110 C113 1.387 . S
H111 C107 0.950 . S
H112 C109 0.950 . S
C113 C104 1.390 . S
C113 H106 0.950 . S
C113 C110 1.387 . S
C114 C115 1.387 . S
C114 H118 0.950 . S
C114 C123 1.390 . S
C115 C114 1.387 . S
C115 C117 1.387 . S
H116 C123 0.950 . S
C117 C115 1.387 . S
C117 C119 1.390 . S
C117 H121 0.950 . S
H118 C114 0.950 . S
C119 C117 1.390 . S
C119 C120 1.387 . S
C119 H122 0.950 . S
C120 C119 1.387 . S
C120 C123 1.387 . S
H121 C117 0.950 . S
H122 C119 0.950 . S
C123 C114 1.390 . S
C123 H116 0.950 . S
C123 C120 1.387 . S
C124 C125 1.387 . S
C124 H128 0.950 1_545 S
C124 C133 1.390 . S
C125 C124 1.387 . S
C125 C127 1.387 . S
H126 C133 0.950 1_565 S
C127 C125 1.387 . S
C127 C129 1.390 . S
C127 H131 0.950 . S
H128 C124 0.950 1_565 S
C129 C127 1.390 . S
C129 C130 1.387 . S
C129 H132 0.950 . S
C130 C129 1.387 . S
C130 C133 1.387 . S
H131 C127 0.950 . S
H132 C129 0.950 . S
C133 C124 1.390 . S
C133 H126 0.950 1_545 S
C133 C130 1.387 . S
C134 C135 1.387 . S
C134 H138 0.950 . S
C134 C143 1.390 . S
C135 C134 1.387 . S
C135 C137 1.387 . S
H136 C143 0.950 . S
C137 C135 1.387 . S
C137 C139 1.390 . S
C137 H141 0.950 . S
H138 C134 0.950 . S
C139 C137 1.390 . S
C139 C140 1.387 . S
C139 H142 0.950 . S
C140 C139 1.387 . S
C140 C143 1.387 . S
H141 C137 0.950 . S
H142 C139 0.950 . S
C143 C134 1.390 . S
C143 H136 0.950 . S
C143 C140 1.387 . S
C144 C145 1.387 . S
C144 H148 0.950 . S
C144 C153 1.390 . S
C145 C144 1.387 . S
C145 C147 1.387 1_545 S
H146 C153 0.950 . S
C147 C145 1.387 1_565 S
C147 C149 1.390 . S
C147 H151 0.950 . S
H148 C144 0.950 . S
C149 C147 1.390 . S
C149 C150 1.387 1_565 S
C149 H152 0.950 . S
C150 C149 1.387 1_545 S
C150 C153 1.387 . S
H151 C147 0.950 . S
H152 C149 0.950 . S
C153 C144 1.390 . S
C153 H146 0.950 . S
C153 C150 1.387 . S
C154 C155 1.387 . S
C154 H158 0.950 1_655 S
C154 C163 1.390 . S
C155 C154 1.387 . S
C155 C157 1.387 . S
H156 C163 0.950 . S
C157 C155 1.387 . S
C157 C159 1.390 . S
C157 H161 0.950 . S
H158 C154 0.950 1_455 S
C159 C157 1.390 . S
C159 C160 1.387 . S
C159 H162 0.950 . S
C160 C159 1.387 . S
C160 C163 1.387 . S
H161 C157 0.950 . S
H162 C159 0.950 . S
C163 C154 1.390 . S
C163 H156 0.950 . S
C163 C160 1.387 . S
C164 C165 1.387 . S
C164 H168 0.950 . S
C164 C173 1.390 . S
C165 C164 1.387 . S
C165 C167 1.387 1_455 S
H166 C173 0.950 . S
C167 C165 1.387 1_655 S
C167 C169 1.390 . S
C167 H171 0.950 . S
H168 C164 0.950 . S
C169 C167 1.390 . S
C169 C170 1.387 1_655 S
C169 H172 0.950 . S
C170 C169 1.387 1_455 S
C170 C173 1.387 . S
H171 C167 0.950 . S
H172 C169 0.950 . S
C173 C164 1.390 . S
C173 H166 0.950 . S
C173 C170 1.387 . S
C174 C175 1.387 1_565 S
C174 H178 0.950 . S
C174 C183 1.390 . S
C175 C174 1.387 1_545 S
C175 C177 1.387 . S
H176 C183 0.950 . S
C177 C175 1.387 . S
C177 C179 1.390 . S
C177 H181 0.950 . S
H178 C174 0.950 . S
C179 C177 1.390 . S
C179 C180 1.387 . S
C179 H182 0.950 . S
C180 C179 1.387 . S
C180 C183 1.387 1_545 S
H181 C177 0.950 . S
H182 C179 0.950 . S
C183 C174 1.390 . S
C183 H176 0.950 . S
C183 C180 1.387 1_565 S
C184 C185 1.387 . S
C184 H188 0.950 . S
C184 C193 1.390 . S
C185 C184 1.387 . S
C185 C187 1.387 . S
H186 C193 0.950 . S
C187 C185 1.387 . S
C187 C189 1.390 . S
C187 H191 0.950 . S
H188 C184 0.950 . S
C189 C187 1.390 . S
C189 C190 1.387 . S
C189 H192 0.950 . S
C190 C189 1.387 . S
C190 C193 1.387 . S
H191 C187 0.950 . S
H192 C189 0.950 . S
C193 C184 1.390 . S
C193 H186 0.950 . S
C193 C190 1.387 . S
C194 C195 1.387 . S
C194 H198 0.950 . S
C194 C203 1.390 . S
C195 C194 1.387 . S
C195 C197 1.387 . S
H196 C203 0.950 . S
C197 C195 1.387 . S
C197 C199 1.390 . S
C197 H201 0.950 . S
H198 C194 0.950 . S
C199 C197 1.390 . S
C199 C200 1.387 . S
C199 H202 0.950 . S
C200 C199 1.387 . S
C200 C203 1.387 . S
H201 C197 0.950 . S
H202 C199 0.950 . S
C203 C194 1.390 . S
C203 H196 0.950 . S
C203 C200 1.387 . S
C90 C43 1.383 . S
C85 C11 1.360 . S
C95 C25 1.415 . S
C100 C69 1.440 . S
C105 C41 1.395 . S
C110 C71 1.455 . S
C115 C7 1.424 . S
C120 C55 1.421 . S
C130 C57 1.470 . S
C125 C21 1.470 . S
C135 C36 1.405 . S
C140 C83 1.479 . S
C150 C56 1.432 . S
C145 C39 1.409 . S
C155 C8 1.401 . S
C160 C82 1.474 . S
C170 C42 1.526 . S
C165 C22 1.447 . S
C180 C68 1.465 . S
C175 C35 1.464 . S
C190 C70 1.449 . S
C185 C13 1.388 . S
C195 C27 1.445 . S
C200 C54 1.488 . S
