# Generated by pormake.
# Topology bcu-b, (8,8)-cn, num edge types: 1
# Building blocks:
#     Node 0, Type 0, BuildingBlock: TAGTUT_clean_sbu_3, # of connection points: 8
#     Node 1, Type 1, BuildingBlock: VETTIZ_charged_sbu_0, # of connection points: 8
#     Edge 2, Type (0, 1), BuildingBlock: EYOCIG_clean_linker_4, # of connection points: 2
#     Edge 3, Type (0, 1), BuildingBlock: EYOCIG_clean_linker_4, # of connection points: 2
#     Edge 4, Type (0, 1), BuildingBlock: EYOCIG_clean_linker_4, # of connection points: 2
#     Edge 5, Type (0, 1), BuildingBlock: EYOCIG_clean_linker_4, # of connection points: 2
#     Edge 6, Type (0, 1), BuildingBlock: EYOCIG_clean_linker_4, # of connection points: 2
#     Edge 7, Type (0, 1), BuildingBlock: EYOCIG_clean_linker_4, # of connection points: 2
#     Edge 8, Type (0, 1), BuildingBlock: EYOCIG_clean_linker_4, # of connection points: 2
#     Edge 9, Type (0, 1), BuildingBlock: EYOCIG_clean_linker_4, # of connection points: 2
# Relax obj value: 0.020
# Max RMSD: 0.097
# Mean RMSD: 0.076
data_MOF--net-bcu-b--node1-TAGTUT_clean_sbu_3--node2-VETTIZ_charged_sbu_0--edge1-EYOCIG_clean_linker_4
_symmetry_space_group_name_H-M    P1
_symmetry_Int_Tables_number       1
_symmetry_cell_setting            triclinic
loop_
_symmetry_equiv_pos_as_xyz
'x, y, z'
_cell_length_a     16.548873
_cell_length_b     16.362817
_cell_length_c     17.3252
_cell_angle_alpha  90.88097
_cell_angle_beta   89.247501
_cell_angle_gamma 100.22274
loop_
_atom_site_label
_atom_site_type_symbol
_atom_site_fract_x
_atom_site_fract_y
_atom_site_fract_z
_atom_type_partial_charge
C0 C 0.12621 0.12789 0.08438 0.0
C1 C 0.2069 0.83368 0.09428 0.0
C2 C 0.13804 0.81531 0.85685 0.0
Mg3 Mg 0.98082 0.18578 -0.0193 0.0
Mg4 Mg 0.81635 0.04501 0.94996 0.0
O5 O 0.9297 0.07662 0.93404 0.0
Mg6 Mg -0.00098 0.00252 -0.02224 0.0
O7 O 0.07349 0.93359 0.02145 0.0
Mg8 Mg 0.18101 0.98449 0.97311 0.0
Mg9 Mg 0.04173 0.81901 0.00709 0.0
C10 C 0.86031 0.88188 0.87399 0.0
O11 O 0.90098 0.94218 0.06621 0.0
O12 O 0.89794 0.23978 0.89299 0.0
O13 O 0.92038 0.8089 0.0603 0.0
O14 O 0.88018 0.18711 0.07292 0.0
O15 O 0.78762 0.13787 0.87569 0.0
O16 O 0.78051 0.07617 0.0659 0.0
O17 O 0.1036 0.05439 0.89324 0.0
O18 O 0.08126 0.18483 0.88979 0.0
C19 C 0.12103 0.12847 0.86777 0.0
C20 C 0.82877 0.20985 0.8612 0.0
O21 O 0.93675 0.9018 0.89129 0.0
O22 O 0.23628 0.90292 0.06138 0.0
O23 O 0.80509 0.92189 0.89897 0.0
O24 O 0.1817 0.88213 0.88187 0.0
O25 O 0.13544 0.79195 0.08076 0.0
O26 O 0.07131 0.78238 0.89039 0.0
O27 O 0.05234 0.10947 0.0603 0.0
O28 O 0.18148 0.08718 0.06239 0.0
C29 C 0.81389 0.14393 0.09854 0.0
C30 C 0.88132 0.8654 0.08495 0.0
Fe31 Fe 0.50964 0.66194 0.48695 0.0
O32 O 0.44718 0.53428 0.4928 0.0
Fe33 Fe 0.67324 0.5189 0.46875 0.0
Fe34 Fe 0.32105 0.4828 0.48242 0.0
O35 O 0.55371 0.54625 0.47109 0.0
O36 O 0.54699 0.46721 0.46189 0.0
O37 O 0.44054 0.4557 0.48392 0.0
Fe38 Fe 0.4848 0.33985 0.47132 0.0
C39 C 0.3534 0.63495 0.59622 0.0
O40 O 0.43162 0.66766 0.39768 0.0
O41 O 0.32295 0.56465 0.39326 0.0
O42 O 0.57184 0.32943 0.38825 0.0
O43 O 0.67769 0.43517 0.38057 0.0
O44 O 0.68776 0.60451 0.38338 0.0
O45 O 0.59624 0.68915 0.3998 0.0
O46 O 0.30771 0.39554 0.39688 0.0
O47 O 0.40657 0.3203 0.37843 0.0
C48 C 0.65685 0.66676 0.36499 0.0
O49 O 0.56109 0.33677 0.564 0.0
O50 O 0.6734 0.43511 0.55458 0.0
O51 O 0.42413 0.6703 0.57352 0.0
O52 O 0.31412 0.56883 0.5668 0.0
C53 C 0.36528 0.63128 0.36805 0.0
C54 C 0.33906 0.34128 0.36072 0.0
C55 C 0.33462 0.33608 0.58868 0.0
O56 O 0.30458 0.39911 0.57036 0.0
O57 O 0.39547 0.31358 0.55484 0.0
C58 C 0.63864 0.36537 0.3582 0.0
O59 O 0.68845 0.60362 0.55763 0.0
O60 O 0.59017 0.67942 0.57744 0.0
C61 C 0.63134 0.37247 0.58655 0.0
C62 C 0.65724 0.65753 0.59485 0.0
C63 C 0.18749 0.23001 0.19389 0.0
C64 C 0.14854 0.18783 0.14488 0.0
C65 C 0.24354 0.2686 0.2498 0.0
C66 C 0.29084 0.29865 0.29921 0.0
C67 C 0.73976 0.2227 0.20433 0.0
C68 C 0.7693 0.18207 0.15644 0.0
C69 C 0.70603 0.276 0.25574 0.0
C70 C 0.67733 0.31883 0.30224 0.0
C71 C 0.77394 0.80831 0.19312 0.0
C72 C 0.82061 0.84167 0.14431 0.0
C73 C 0.72899 0.76097 0.25221 0.0
C74 C 0.6961 0.71793 0.30368 0.0
C75 C 0.28258 0.76257 0.1994 0.0
C76 C 0.25385 0.80054 0.1509 0.0
C77 C 0.30978 0.71334 0.25633 0.0
C78 C 0.33252 0.67349 0.30704 0.0
C79 C 0.21369 0.74015 0.74934 0.0
C80 C 0.17421 0.76987 0.798 0.0
C81 C 0.26648 0.70617 0.69776 0.0
C82 C 0.30946 0.67687 0.65195 0.0
C83 C 0.22122 0.18456 0.75515 0.0
C84 C 0.17897 0.14917 0.80587 0.0
C85 C 0.26229 0.23682 0.69749 0.0
C86 C 0.29432 0.28305 0.64801 0.0
C87 C 0.75724 0.28564 0.75633 0.0
C88 C 0.79516 0.25669 0.80463 0.0
C89 C 0.70869 0.31336 0.69931 0.0
C90 C 0.66978 0.33701 0.64849 0.0
C91 C 0.79812 0.7744 0.76742 0.0
C92 C 0.83495 0.82029 0.81527 0.0
C93 C 0.74742 0.73165 0.7093 0.0
C94 C 0.70437 0.69937 0.65759 0.0
loop_
_geom_bond_atom_site_label_1
_geom_bond_atom_site_label_2
_geom_bond_distance
_geom_bond_site_symmetry_2
_ccdc_geom_bond_type
C0 O27 1.312 . S
C0 O28 1.208 . S
C1 O22 1.331 . S
C1 O25 1.244 . S
C2 O24 1.264 . S
C2 O26 1.273 . S
Mg3 O5 1.936 . S
Mg3 O12 2.081 . S
Mg3 O14 2.023 1_556 S
Mg3 O18 2.031 1_655 S
Mg3 O27 2.291 1_656 S
Mg4 O5 1.963 . S
Mg4 O15 1.942 . S
Mg4 O16 1.955 1_556 S
Mg4 O23 1.986 1_545 S
O5 Mg3 1.936 . S
O5 Mg4 1.963 . S
O5 Mg6 1.916 1_656 S
Mg6 O5 1.916 1_454 S
Mg6 O7 1.916 1_545 S
Mg6 O11 2.005 1_445 S
Mg6 O17 2.123 1_554 S
Mg6 O21 2.005 1_444 S
Mg6 O27 2.122 . S
O7 Mg6 1.916 1_565 S
O7 Mg8 1.936 . S
O7 Mg9 1.963 . S
Mg8 O7 1.936 . S
Mg8 O17 2.291 1_564 S
Mg8 O22 2.081 . S
Mg8 O24 2.023 1_554 S
Mg8 O28 2.031 1_565 S
Mg9 O7 1.963 . S
Mg9 O13 1.986 1_455 S
Mg9 O25 1.942 . S
Mg9 O26 1.955 1_554 S
C10 O21 1.191 . S
C10 O23 1.307 . S
O11 Mg6 2.005 1_665 S
O11 C30 1.191 . S
O12 Mg3 2.081 . S
O12 C20 1.331 . S
O13 Mg9 1.986 1_655 S
O13 C30 1.307 . S
O14 Mg3 2.023 1_554 S
O14 C29 1.264 . S
O15 Mg4 1.942 . S
O15 C20 1.244 . S
O16 Mg4 1.955 1_554 S
O16 C29 1.273 . S
O17 Mg6 2.123 1_556 S
O17 Mg8 2.291 1_546 S
O17 C19 1.312 . S
O18 Mg3 2.031 1_455 S
O18 C19 1.208 . S
C19 O17 1.312 . S
C19 O18 1.208 . S
C20 O12 1.331 . S
C20 O15 1.244 . S
O21 Mg6 2.005 1_666 S
O21 C10 1.191 . S
O22 C1 1.331 . S
O22 Mg8 2.081 . S
O23 Mg4 1.986 1_565 S
O23 C10 1.307 . S
O24 C2 1.264 . S
O24 Mg8 2.023 1_556 S
O25 C1 1.244 . S
O25 Mg9 1.942 . S
O26 C2 1.273 . S
O26 Mg9 1.955 1_556 S
O27 C0 1.312 . S
O27 Mg3 2.291 1_454 S
O27 Mg6 2.122 . S
O28 C0 1.208 . S
O28 Mg8 2.031 1_545 S
C29 O14 1.264 . S
C29 O16 1.273 . S
C30 O11 1.191 . S
C30 O13 1.307 . S
Fe31 O32 1.886 . S
Fe31 O35 1.715 . S
Fe31 O40 2.077 . S
Fe31 O45 1.935 . S
Fe31 O51 2.077 . S
Fe31 O60 1.935 . S
O32 Fe31 1.886 . S
O32 Fe34 1.715 . S
Fe33 O35 1.886 . S
Fe33 O36 1.715 . S
Fe33 O43 1.935 . S
Fe33 O44 2.077 . S
Fe33 O50 1.935 . S
Fe33 O59 2.077 . S
Fe34 O32 1.715 . S
Fe34 O37 1.886 . S
Fe34 O41 1.935 . S
Fe34 O46 2.077 . S
Fe34 O52 1.935 . S
Fe34 O56 2.077 . S
O35 Fe31 1.715 . S
O35 Fe33 1.886 . S
O36 Fe33 1.715 . S
O36 Fe38 1.886 . S
O37 Fe34 1.886 . S
O37 Fe38 1.715 . S
Fe38 O36 1.886 . S
Fe38 O37 1.715 . S
Fe38 O42 2.077 . S
Fe38 O47 1.935 . S
Fe38 O49 2.077 . S
Fe38 O57 1.935 . S
C39 O51 1.381 . S
C39 O52 1.421 . S
O40 Fe31 2.077 . S
O40 C53 1.381 . S
O41 Fe34 1.935 . S
O41 C53 1.421 . S
O42 Fe38 2.077 . S
O42 C58 1.381 . S
O43 Fe33 1.935 . S
O43 C58 1.421 . S
O44 Fe33 2.077 . S
O44 C48 1.381 . S
O45 Fe31 1.935 . S
O45 C48 1.421 . S
O46 Fe34 2.077 . S
O46 C54 1.381 . S
O47 Fe38 1.935 . S
O47 C54 1.421 . S
C48 O44 1.381 . S
C48 O45 1.421 . S
O49 Fe38 2.077 . S
O49 C61 1.381 . S
O50 Fe33 1.935 . S
O50 C61 1.421 . S
O51 Fe31 2.077 . S
O51 C39 1.381 . S
O52 Fe34 1.935 . S
O52 C39 1.421 . S
C53 O40 1.381 . S
C53 O41 1.421 . S
C54 O46 1.381 . S
C54 O47 1.421 . S
C55 O56 1.381 . S
C55 O57 1.421 . S
O56 Fe34 2.077 . S
O56 C55 1.381 . S
O57 Fe38 1.935 . S
O57 C55 1.421 . S
C58 O42 1.381 . S
C58 O43 1.421 . S
O59 Fe33 2.077 . S
O59 C62 1.381 . S
O60 Fe31 1.935 . S
O60 C62 1.421 . S
C61 O49 1.381 . S
C61 O50 1.421 . S
C62 O59 1.381 . S
C62 O60 1.421 . S
C63 C64 1.170 . S
C63 C65 1.380 . S
C64 C63 1.170 . S
C65 C63 1.380 . S
C65 C66 1.170 . S
C66 C65 1.170 . S
C67 C68 1.170 . S
C67 C69 1.380 . S
C68 C67 1.170 . S
C69 C67 1.380 . S
C69 C70 1.170 . S
C70 C69 1.170 . S
C71 C72 1.170 . S
C71 C73 1.380 . S
C72 C71 1.170 . S
C73 C71 1.380 . S
C73 C74 1.170 . S
C74 C73 1.170 . S
C75 C76 1.170 . S
C75 C77 1.380 . S
C76 C75 1.170 . S
C77 C75 1.380 . S
C77 C78 1.170 . S
C78 C77 1.170 . S
C79 C80 1.170 . S
C79 C81 1.380 . S
C80 C79 1.170 . S
C81 C79 1.380 . S
C81 C82 1.170 . S
C82 C81 1.170 . S
C83 C84 1.170 . S
C83 C85 1.380 . S
C84 C83 1.170 . S
C85 C83 1.380 . S
C85 C86 1.170 . S
C86 C85 1.170 . S
C87 C88 1.170 . S
C87 C89 1.380 . S
C88 C87 1.170 . S
C89 C87 1.380 . S
C89 C90 1.170 . S
C90 C89 1.170 . S
C91 C92 1.170 . S
C91 C93 1.380 . S
C92 C91 1.170 . S
C93 C91 1.380 . S
C93 C94 1.170 . S
C94 C93 1.170 . S
C64 C0 1.390 . S
C66 C54 1.443 . S
C68 C29 1.547 . S
C70 C58 1.536 . S
C72 C30 1.393 . S
C74 C48 1.358 . S
C76 C1 1.507 . S
C78 C53 1.473 . S
C80 C2 1.571 . S
C82 C39 1.523 . S
C86 C55 1.408 . S
C84 C19 1.403 . S
C88 C20 1.486 . S
C90 C61 1.473 . S
C94 C62 1.391 . S
C92 C10 1.368 . S
