# Generated by pormake.
# Topology pts, (4,4)-cn, num edge types: 1
# Building blocks:
#     Node 0, Type 0, BuildingBlock: ESEHIV_clean_sbu_0, # of connection points: 4
#     Node 1, Type 0, BuildingBlock: ESEHIV_clean_sbu_0, # of connection points: 4
#     Node 2, Type 1, BuildingBlock: AZAVOO_clean_sbu_0, # of connection points: 4
#     Node 3, Type 1, BuildingBlock: AZAVOO_clean_sbu_0, # of connection points: 4
#     Edge 4, Type (0, 1), None
#     Edge 5, Type (0, 1), None
#     Edge 6, Type (0, 1), None
#     Edge 7, Type (0, 1), None
#     Edge 8, Type (0, 1), None
#     Edge 9, Type (0, 1), None
#     Edge 10, Type (0, 1), None
#     Edge 11, Type (0, 1), None
# Relax obj value: 0.001
# Max RMSD: 0.095
# Mean RMSD: 0.066
data_MOF--net-pts--node1-ESEHIV_clean_sbu_0--node2-AZAVOO_clean_sbu_0--edge1-none
_symmetry_space_group_name_H-M    P1
_symmetry_Int_Tables_number       1
_symmetry_cell_setting            triclinic
loop_
_symmetry_equiv_pos_as_xyz
'x, y, z'
_cell_length_a     10.780094
_cell_length_b     12.160709
_cell_length_c     18.128953
_cell_angle_alpha  100.36067
_cell_angle_beta   108.92305
_cell_angle_gamma 76.791631
loop_
_atom_site_label
_atom_site_type_symbol
_atom_site_fract_x
_atom_site_fract_y
_atom_site_fract_z
_atom_type_partial_charge
Cu0 Cu 0.6312 0.14388 0.03461 0.0
N1 N 0.72906 0.17676 0.97549 0.0
N2 N 0.84436 0.19563 0.89782 0.0
C3 C 0.80687 0.12132 0.93036 0.0
C4 C 0.78896 0.30017 0.92307 0.0
C5 C 0.71886 0.28804 0.97095 0.0
O6 O 0.73503 0.19844 0.14025 0.0
C7 C 0.44827 0.09999 0.90133 0.0
O8 O 0.55077 1.0163 0.90469 0.0
H9 H 0.83246 0.0296 0.9201 0.0
H10 H 0.6613 0.35621 1.00002 0.0
N11 N 0.60581 1.01497 0.0652 0.0
N12 N 0.54235 0.98918 0.16598 0.0
C13 C 0.51267 0.04615 0.10377 0.0
C14 C 0.6943 0.92972 0.10207 0.0
C15 C 0.65417 0.91258 0.16373 0.0
C16 C 0.85439 0.14011 0.15399 0.0
O17 O 0.88895 0.07052 0.09681 0.0
H18 H 0.43795 0.12294 0.09468 0.0
H19 H 0.78999 0.89376 0.09247 0.0
O20 O 0.45448 0.17926 0.95927 0.0
H21 H 0.79759 0.3794 0.90744 0.0
H22 H 0.71066 0.85653 0.20813 0.0
Cu23 Cu 0.15836 0.66913 0.53684 0.0
N24 N 0.2419 0.60342 0.63106 0.0
N25 N 0.22429 0.45768 0.6847 0.0
C26 C 0.26169 0.48945 0.62852 0.0
C27 C 0.18864 0.55404 0.72813 0.0
C28 C 0.20131 0.6433 0.69581 0.0
O29 O 0.08801 0.54063 0.46328 0.0
C30 C 0.11166 0.87614 0.61185 0.0
O31 O 0.24236 0.84843 0.63244 0.0
H32 H 0.27812 0.43237 0.57799 0.0
H33 H 0.16164 0.7308 0.71188 0.0
N34 N 0.25988 0.73121 0.49384 0.0
N35 N 0.29198 0.84687 0.42181 0.0
C36 C 0.21391 0.83054 0.46179 0.0
C37 C 0.37376 0.68552 0.47574 0.0
C38 C 0.39177 0.75529 0.42933 0.0
C39 C 0.14267 0.48321 0.41157 0.0
O40 O 0.21825 0.52855 0.3864 0.0
H41 H 0.12017 0.88577 0.46295 0.0
H42 H 0.43443 0.60404 0.49092 0.0
O43 O 1.04118 0.80458 0.5672 0.0
H44 H 0.14546 0.56016 0.77531 0.0
H45 H 0.47291 0.7404 0.40374 0.0
Mg46 Mg 0.28524 0.10554 0.32232 0.0
O47 O 0.07733 0.11107 0.23258 0.0
O48 O 0.91872 0.15311 0.29343 0.0
Mg49 Mg 1.03226 0.13811 0.42437 0.0
C50 C 0.95477 0.13907 0.23144 0.0
C51 C 0.48455 1.01511 0.22524 0.0
O52 O 0.53136 0.95436 0.28464 0.0
O53 O 0.2196 0.30088 0.35044 0.0
O54 O 0.08461 0.31251 0.42465 0.0
O55 O 0.3323 0.92057 0.32652 0.0
O56 O 0.22048 0.038 0.40042 0.0
C57 C 0.14594 0.35912 0.39256 0.0
C58 C 0.27669 0.9352 0.38127 0.0
O59 O 0.38637 0.09838 0.22509 0.0
Mg60 Mg 1.03343 0.18301 0.71901 0.0
O61 O 0.22313 0.13615 0.82037 0.0
O62 O 0.38679 0.08401 0.76394 0.0
Mg63 Mg 0.30472 0.07524 0.62998 0.0
C64 C 0.34634 0.10897 0.8248 0.0
C65 C 0.91732 0.17127 0.84682 0.0
O66 O 0.97083 0.0654 0.82949 0.0
O67 O 0.12231 0.3406 0.72199 0.0
O68 O 0.26126 0.26858 0.64862 0.0
O69 O 0.98139 1.00697 0.68458 0.0
O70 O 0.10626 0.07371 0.63482 0.0
C71 C 0.20283 0.35247 0.68606 0.0
C72 C 0.05514 0.99036 0.63879 0.0
O73 O 0.93059 0.2497 0.81305 0.0
loop_
_geom_bond_atom_site_label_1
_geom_bond_atom_site_label_2
_geom_bond_distance
_geom_bond_site_symmetry_2
_ccdc_geom_bond_type
Cu0 N1 1.999 1_554 S
Cu0 O6 1.974 . S
Cu0 N11 1.985 . S
Cu0 O20 1.959 1_554 S
N1 Cu0 1.999 1_556 S
N1 C3 1.263 . S
N1 C5 1.389 . S
N2 C3 1.358 . S
N2 C4 1.400 . S
C3 N1 1.263 . S
C3 N2 1.358 . S
C3 H9 0.930 . S
C4 N2 1.400 . S
C4 C5 1.351 . S
C4 H21 0.930 . S
C5 N1 1.389 . S
C5 C4 1.351 . S
C5 H10 0.930 . S
O6 Cu0 1.974 . S
O6 C16 1.282 . S
C7 O8 1.261 1_545 S
C7 O20 1.251 . S
O8 C7 1.261 1_565 S
H9 C3 0.930 . S
H10 C5 0.930 . S
N11 Cu0 1.985 . S
N11 C13 1.335 . S
N11 C14 1.390 . S
N12 C13 1.345 . S
N12 C15 1.336 . S
C13 N11 1.335 . S
C13 N12 1.345 . S
C13 H18 0.930 . S
C14 N11 1.390 . S
C14 C15 1.346 . S
C14 H19 0.930 . S
C15 N12 1.336 . S
C15 C14 1.346 . S
C15 H22 0.929 . S
C16 O6 1.282 . S
C16 O17 1.216 1_545 S
O17 C16 1.216 1_565 S
H18 C13 0.930 . S
H19 C14 0.930 . S
O20 Cu0 1.959 1_556 S
O20 C7 1.251 . S
H21 C4 0.930 . S
H22 C15 0.929 . S
Cu23 N24 1.999 . S
Cu23 O29 1.974 . S
Cu23 N34 1.985 . S
Cu23 O43 1.959 . S
N24 Cu23 1.999 . S
N24 C26 1.263 . S
N24 C28 1.389 . S
N25 C26 1.358 . S
N25 C27 1.400 . S
C26 N24 1.263 . S
C26 N25 1.358 . S
C26 H32 0.930 . S
C27 N25 1.400 . S
C27 C28 1.351 . S
C27 H44 0.930 1_455 S
C28 N24 1.389 . S
C28 C27 1.351 . S
C28 H33 0.930 1_455 S
O29 Cu23 1.974 . S
O29 C39 1.282 . S
C30 O31 1.261 . S
C30 O43 1.251 . S
O31 C30 1.261 . S
H32 C26 0.930 . S
H33 C28 0.930 1_655 S
N34 Cu23 1.985 . S
N34 C36 1.335 . S
N34 C37 1.390 . S
N35 C36 1.345 . S
N35 C38 1.336 . S
C36 N34 1.335 . S
C36 N35 1.345 . S
C36 H41 0.930 . S
C37 N34 1.390 . S
C37 C38 1.346 . S
C37 H42 0.930 . S
C38 N35 1.336 . S
C38 C37 1.346 . S
C38 H45 0.929 . S
C39 O29 1.282 . S
C39 O40 1.216 . S
O40 C39 1.216 . S
H41 C36 0.930 . S
H42 C37 0.930 . S
O43 Cu23 1.959 . S
O43 C30 1.251 . S
H44 C27 0.930 1_655 S
H45 C38 0.929 . S
Mg46 O47 2.028 . S
Mg46 O53 1.986 . S
Mg46 O55 2.114 1_545 S
Mg46 O56 2.251 . S
Mg46 O59 2.010 . S
O47 Mg46 2.028 . S
O47 C50 1.250 1_455 S
O48 Mg49 2.028 . S
O48 C50 1.248 . S
Mg49 O48 2.028 . S
Mg49 O54 2.032 1_655 S
Mg49 O56 2.079 1_655 S
C50 O47 1.250 1_655 S
C50 O48 1.248 . S
C51 O52 1.264 . S
C51 O59 1.249 . S
O52 C51 1.264 . S
O53 Mg46 1.986 . S
O53 C57 1.246 . S
O54 Mg49 2.032 1_455 S
O54 C57 1.259 . S
O55 Mg46 2.114 1_565 S
O55 C58 1.252 . S
O56 Mg46 2.251 . S
O56 Mg49 2.079 1_455 S
O56 C58 1.273 1_545 S
C57 O53 1.246 . S
C57 O54 1.259 . S
C58 O55 1.252 . S
C58 O56 1.273 1_565 S
O59 Mg46 2.010 . S
O59 C51 1.249 . S
Mg60 O61 2.028 . S
Mg60 O67 1.986 . S
Mg60 O69 2.114 1_545 S
Mg60 O70 2.251 1_545 S
Mg60 O73 2.010 1_455 S
O61 Mg60 2.028 . S
O61 C64 1.250 . S
O62 Mg63 2.028 . S
O62 C64 1.248 . S
Mg63 O62 2.028 . S
Mg63 O68 2.032 . S
Mg63 O70 2.079 1_545 S
C64 O61 1.250 . S
C64 O62 1.248 . S
C65 O66 1.264 . S
C65 O73 1.249 . S
O66 C65 1.264 . S
O67 Mg60 1.986 . S
O67 C71 1.246 . S
O68 Mg63 2.032 . S
O68 C71 1.259 . S
O69 Mg60 2.114 1_565 S
O69 C72 1.252 . S
O70 Mg60 2.251 1_565 S
O70 Mg63 2.079 1_565 S
O70 C72 1.273 . S
C71 O67 1.246 . S
C71 O68 1.259 . S
C72 O69 1.252 . S
C72 O70 1.273 . S
O73 Mg60 2.010 1_655 S
O73 C65 1.249 . S
C51 N12 1.078 . S
C71 N25 1.686 . S
C50 C16 1.529 . S
C72 C30 1.578 . S
C64 C7 1.531 . S
C57 C39 1.555 . S
C65 N2 1.184 . S
N35 C58 1.455 . S
