# Generated by pormake.
# Topology scu, (8,4)-cn, num edge types: 1
# Building blocks:
#     Node 0, Type 0, BuildingBlock: VETTIZ_charged_sbu_0, # of connection points: 8
#     Node 1, Type 1, BuildingBlock: NAWXER_clean_sbu_0, # of connection points: 4
#     Node 2, Type 1, BuildingBlock: NAWXER_clean_sbu_0, # of connection points: 4
#     Edge 3, Type (0, 1), BuildingBlock: XIVTED_clean_linker_0, # of connection points: 2
#     Edge 4, Type (0, 1), BuildingBlock: XIVTED_clean_linker_0, # of connection points: 2
#     Edge 5, Type (0, 1), BuildingBlock: XIVTED_clean_linker_0, # of connection points: 2
#     Edge 6, Type (0, 1), BuildingBlock: XIVTED_clean_linker_0, # of connection points: 2
#     Edge 7, Type (0, 1), BuildingBlock: XIVTED_clean_linker_0, # of connection points: 2
#     Edge 8, Type (0, 1), BuildingBlock: XIVTED_clean_linker_0, # of connection points: 2
#     Edge 9, Type (0, 1), BuildingBlock: XIVTED_clean_linker_0, # of connection points: 2
#     Edge 10, Type (0, 1), BuildingBlock: XIVTED_clean_linker_0, # of connection points: 2
# Relax obj value: 0.013
# Max RMSD: 0.059
# Mean RMSD: 0.052
data_MOF--net-scu--node1-VETTIZ_charged_sbu_0--node2-NAWXER_clean_sbu_0--edge1-XIVTED_clean_linker_0
_symmetry_space_group_name_H-M    P1
_symmetry_Int_Tables_number       1
_symmetry_cell_setting            triclinic
loop_
_symmetry_equiv_pos_as_xyz
'x, y, z'
_cell_length_a     23.775382
_cell_length_b     24.884772
_cell_length_c     20.679284
_cell_angle_alpha  90.137746
_cell_angle_beta   89.996014
_cell_angle_gamma 89.796104
loop_
_atom_site_label
_atom_site_type_symbol
_atom_site_fract_x
_atom_site_fract_y
_atom_site_fract_z
_atom_type_partial_charge
Fe0 Fe 1.03567 0.01465 0.05311 0.0
O1 O 1.03318 0.0674 -0.01985 0.0
Fe2 Fe 0.0927 0.90137 0.97663 0.0
Fe3 Fe 0.9775 0.12619 0.97444 0.0
O4 O 0.03703 0.96023 -0.0184 0.0
O5 O 0.03876 0.96051 0.97486 0.0
O6 O 1.03125 0.06692 0.97351 0.0
Fe7 Fe 1.03481 0.01293 0.90236 0.0
C8 C 0.91632 0.0519 0.06834 0.0
O9 O 0.037 0.08197 0.11616 0.0
O10 O 1.02861 0.15508 0.047 0.0
O11 O 0.11963 0.02164 0.90124 0.0
O12 O 0.14646 0.93597 0.90791 0.0
O13 O 0.14257 0.93072 0.04858 0.0
O14 O 0.12296 0.01782 0.0564 0.0
O15 O 1.02419 0.15172 0.8971 0.0
O16 O 1.02954 0.07546 0.83424 0.0
C17 C 0.155 0.97767 0.06751 0.0
O18 O 0.03994 0.94886 0.83582 0.0
O19 O 0.04527 0.87411 0.9007 0.0
O20 O 0.94846 1.01159 0.05819 0.0
O21 O 0.92835 0.09842 0.04782 0.0
C22 C 0.0431 0.13289 0.10157 0.0
C23 C 1.03236 0.12715 0.84273 0.0
C24 C 0.91408 0.04107 0.89156 0.0
O25 O 0.92313 0.09011 0.90734 0.0
O26 O 0.94995 1.0043 0.90183 0.0
C27 C 0.15544 0.98475 0.89127 0.0
O28 O 0.04244 0.87412 0.05064 0.0
O29 O 1.03542 0.94879 0.11804 0.0
C30 C 0.03722 0.89734 0.84561 0.0
C31 C 1.0291 0.89755 0.10495 0.0
C32 C 0.07353 0.58441 0.55054 0.0
C33 C 0.09287 0.44261 0.38779 0.0
O34 O 0.11996 0.56845 0.5262 0.0
Zn35 Zn 0.0871 0.51697 0.46618 0.0
O36 O 1.02705 0.56387 0.53141 0.0
Zn37 Zn 0.99629 0.50713 0.46274 0.0
O38 O 0.96014 0.45456 0.51849 0.0
O39 O 0.05261 0.45873 0.53026 0.0
O40 O 0.04215 0.45337 0.40381 0.0
O41 O 0.13289 0.4717 0.40866 0.0
O42 O 0.0447 0.57174 0.40582 0.0
O43 O 0.95388 0.55379 0.40358 0.0
C44 C 1.0052 0.43787 0.54535 0.0
C45 C 0.995 0.58319 0.38666 0.0
C46 C 0.6066 0.97589 0.57357 0.0
C47 C 0.46174 0.97416 0.40152 0.0
O48 O 0.58939 0.93258 0.54692 0.0
Zn49 Zn 0.53695 0.9676 0.48542 0.0
O50 O 0.58885 0.02132 0.55314 0.0
Zn51 Zn 0.53383 0.05686 0.48573 0.0
O52 O 0.48065 0.09169 0.54681 0.0
O53 O 0.48119 1.00296 0.55225 0.0
O54 O 0.47764 0.02022 0.42164 0.0
O55 O 0.4848 0.93189 0.42439 0.0
O56 O 0.59404 1.00438 0.42279 0.0
O57 O 0.58682 0.09271 0.42589 0.0
C58 C 0.46319 0.04833 0.57285 0.0
C59 C 0.61026 0.05044 0.4033 0.0
H60 H 0.10899 0.21939 0.07804 0.0
H61 H 0.04922 0.34706 0.41964 0.0
H62 H 1.03296 0.13101 0.23426 0.0
H63 H 0.15847 0.42175 0.2802 0.0
H64 H 0.05201 0.264 0.35715 0.0
H65 H 0.13686 0.28923 0.15426 0.0
C66 C 0.09871 0.21443 0.12873 0.0
C67 C 0.06763 0.16987 0.1498 0.0
C68 C 0.07619 0.29807 0.34047 0.0
C69 C 0.0991 0.25008 0.23732 0.0
C70 C 0.07446 0.34556 0.37599 0.0
C71 C 0.10312 0.39128 0.35434 0.0
C72 C 0.10578 0.29652 0.28187 0.0
C73 C 0.13569 0.38728 0.29818 0.0
C74 C 0.1149 0.25426 0.17225 0.0
C75 C 0.05646 0.16493 0.216 0.0
N76 N 0.13529 0.34086 0.26302 0.0
N77 N 0.07126 0.20516 0.25731 0.0
H78 H 0.83201 0.12536 0.08349 0.0
H79 H 0.68163 0.96911 0.37183 0.0
H80 H 0.88717 0.97018 0.15231 0.0
H81 H 0.64337 0.13384 0.32316 0.0
H82 H 0.75284 0.96703 0.28769 0.0
H83 H 0.75785 0.12592 0.16452 0.0
C84 C 0.82829 0.09101 0.11527 0.0
C85 C 0.8664 0.04771 0.11118 0.0
C86 C 0.7291 1.00372 0.29531 0.0
C87 C 0.7811 0.04853 0.20486 0.0
C88 C 0.68823 1.00509 0.34348 0.0
C89 C 0.65609 0.05181 0.3546 0.0
C90 C 0.73813 0.0493 0.2572 0.0
C91 C 0.66714 0.09707 0.31646 0.0
C92 C 0.78592 0.09162 0.16182 0.0
C93 C 0.85885 1.00433 0.15347 0.0
N94 N 0.7071 0.0946 0.26917 0.0
N95 N 0.81724 1.00601 0.19879 0.0
H96 H 0.95662 0.81512 0.08744 0.0
H97 H 0.05247 0.67441 0.40837 0.0
H98 H 0.05166 0.89682 0.23526 0.0
H99 H 0.9188 0.61019 0.29059 0.0
H100 H 0.04682 0.75861 0.34945 0.0
H101 H 0.93484 0.74371 0.16411 0.0
C102 C 0.97205 0.81841 0.1366 0.0
C103 C 1.00666 0.86143 0.155 0.0
C104 C 1.01819 0.72653 0.3367 0.0
C105 C 0.98269 0.7794 0.24258 0.0
C106 C 1.02171 0.67818 0.36994 0.0
C107 C 0.98677 0.63494 0.3533 0.0
C108 C 0.98019 0.73164 0.28531 0.0
C109 C 0.94683 0.64244 0.30434 0.0
C110 C 0.95949 0.77768 0.18032 0.0
C111 C 1.02501 0.86421 0.21921 0.0
N112 N 0.94531 0.68969 0.27108 0.0
N113 N 1.01374 0.82307 0.26044 0.0
H114 H 0.18526 0.06155 0.14826 0.0
H115 H 0.42755 0.8894 0.32386 0.0
H116 H 0.2383 0.90372 0.08526 0.0
H117 H 0.3933 0.05646 0.36547 0.0
H118 H 0.35555 0.89249 0.23854 0.0
H119 H 0.26091 0.06056 0.22905 0.0
C120 C 0.2132 0.02713 0.15068 0.0
C121 C 0.20504 0.98259 0.11009 0.0
C122 C 0.36398 0.92843 0.26645 0.0
C123 C 0.2909 0.98061 0.20315 0.0
C124 C 0.40482 0.92651 0.31535 0.0
C125 C 0.41673 0.97267 0.35178 0.0
C126 C 0.33464 0.97673 0.25437 0.0
C127 C 0.38598 0.01984 0.33843 0.0
C128 C 0.25614 0.02633 0.19712 0.0
C129 C 0.24247 0.93884 0.11585 0.0
N130 N 0.3465 0.02061 0.29107 0.0
N131 N 0.28329 0.93878 0.16173 0.0
H132 H 0.09765 0.89777 0.7334 0.0
H133 H 0.99237 0.60277 0.63945 0.0
H134 H 0.96895 0.81121 0.83599 0.0
H135 H 0.14552 0.67031 0.56335 0.0
H136 H 0.97757 0.68375 0.70319 0.0
H137 H 0.10752 0.82128 0.65852 0.0
C138 C 0.07014 0.86343 0.73861 0.0
C139 C 1.03216 0.86059 0.79035 0.0
C140 C 1.01468 0.68095 0.67298 0.0
C141 C 0.04423 0.77306 0.70688 0.0
C142 C 1.02334 0.63454 0.63683 0.0
C143 C 0.07043 0.62975 0.5964 0.0
C144 C 0.05312 0.7234 0.66849 0.0
C145 C 0.10907 0.67221 0.59466 0.0
C146 C 0.07646 0.81954 0.69674 0.0
C147 C 0.9985 0.81485 0.79638 0.0
N148 N 0.09939 0.71762 0.63 0.0
N149 N 1.00555 0.77278 0.75542 0.0
H150 H 0.17986 0.08145 0.83475 0.0
H151 H 0.45933 0.97229 0.66519 0.0
H152 H 0.24635 0.92101 0.8594 0.0
H153 H 0.37921 0.12075 0.60852 0.0
H154 H 0.3893 0.9606 0.74915 0.0
H155 H 0.25893 0.10269 0.76429 0.0
C156 C 0.21132 0.05069 0.82599 0.0
C157 C 0.20611 0.99903 0.85307 0.0
C158 C 0.38692 0.99593 0.71878 0.0
C159 C 0.297 0.02361 0.77205 0.0
C160 C 0.42698 1.00277 0.67067 0.0
C161 C 0.42457 0.04722 0.62896 0.0
C162 C 0.34354 0.03368 0.72568 0.0
C163 C 0.38244 0.08583 0.63943 0.0
C164 C 0.25641 0.06301 0.78546 0.0
C165 C 0.24834 0.96118 0.8396 0.0
N166 N 0.34302 0.07787 0.68647 0.0
N167 N 0.29183 0.97421 0.79993 0.0
H168 H 0.10912 0.20554 0.82735 0.0
H169 H 0.92818 0.35566 0.55623 0.0
H170 H 0.96638 0.1317 0.7352 0.0
H171 H 0.08538 0.41364 0.63342 0.0
H172 H 0.93956 0.27326 0.62068 0.0
H173 H 0.1027 0.28028 0.7517 0.0
C174 C 0.07746 0.20451 0.78966 0.0
C175 C 0.03867 0.16248 0.78667 0.0
C176 C 0.9714 0.30419 0.62341 0.0
C177 C 1.02905 0.2489 0.70184 0.0
C178 C 0.96452 0.35141 0.5874 0.0
C179 C 1.0058 0.39153 0.58971 0.0
C180 C 1.01966 0.29756 0.662 0.0
C181 C 0.05255 0.38372 0.63003 0.0
C182 C 0.07327 0.2474 0.74694 0.0
C183 C 0.99762 0.16319 0.738 0.0
N184 N 0.05815 0.33779 0.6644 0.0
N185 N 0.99325 0.20632 0.6979 0.0
H186 H 0.88977 0.94391 0.83552 0.0
H187 H 0.60923 0.05123 0.66722 0.0
H188 H 0.82266 0.1042 0.86034 0.0
H189 H 0.69095 0.90387 0.60864 0.0
H190 H 0.67904 0.06311 0.7515 0.0
H191 H 0.81051 0.92203 0.76548 0.0
C192 C 0.85812 0.97449 0.82691 0.0
C193 C 0.86324 0.02632 0.85386 0.0
C194 C 0.6818 0.02796 0.72066 0.0
C195 C 0.77214 1.001 0.77334 0.0
C196 C 0.64185 0.02101 0.67239 0.0
C197 C 0.64481 0.97685 0.63004 0.0
C198 C 0.72559 0.99061 0.72704 0.0
C199 C 0.6873 0.93855 0.64007 0.0
C200 C 0.81293 0.96181 0.78662 0.0
C201 C 0.82077 0.06392 0.84061 0.0
N202 N 0.72659 0.94663 0.68726 0.0
N203 N 0.77719 0.05055 0.80117 0.0
loop_
_geom_bond_atom_site_label_1
_geom_bond_atom_site_label_2
_geom_bond_distance
_geom_bond_site_symmetry_2
_ccdc_geom_bond_type
Fe0 O1 1.894 . S
Fe0 O4 1.707 1_645 S
Fe0 O9 2.077 1_655 S
Fe0 O14 1.920 1_655 S
Fe0 O20 2.093 1_545 S
Fe0 O29 1.938 1_545 S
O1 Fe0 1.894 . S
O1 Fe3 1.715 1_554 S
Fe2 O4 1.886 . S
Fe2 O5 1.715 1_554 S
Fe2 O12 1.935 1_554 S
Fe2 O13 2.077 . S
Fe2 O19 1.935 1_554 S
Fe2 O28 2.077 . S
Fe3 O1 1.715 1_556 S
Fe3 O6 1.886 . S
Fe3 O10 1.935 1_556 S
Fe3 O15 2.077 . S
Fe3 O21 1.935 1_556 S
Fe3 O25 2.077 . S
O4 Fe0 1.707 1_465 S
O4 Fe2 1.886 . S
O5 Fe2 1.715 1_556 S
O5 Fe7 1.894 . S
O6 Fe3 1.886 . S
O6 Fe7 1.707 1_645 S
Fe7 O5 1.894 . S
Fe7 O6 1.707 1_465 S
Fe7 O11 2.077 1_565 S
Fe7 O16 1.920 1_565 S
Fe7 O18 2.093 1_455 S
Fe7 O26 1.938 1_455 S
C8 O20 1.381 1_545 S
C8 O21 1.421 . S
O9 Fe0 2.077 1_455 S
O9 C22 1.381 1_455 S
O10 Fe3 1.935 1_554 S
O10 C22 1.421 . S
O11 Fe7 2.077 1_545 S
O11 C27 1.381 1_545 S
O12 Fe2 1.935 1_556 S
O12 C27 1.421 . S
O13 Fe2 2.077 . S
O13 C17 1.381 . S
O14 Fe0 1.920 1_455 S
O14 C17 1.421 1_545 S
O15 Fe3 2.077 . S
O15 C23 1.381 . S
O16 Fe7 1.920 1_545 S
O16 C23 1.421 1_455 S
C17 O13 1.381 . S
C17 O14 1.421 1_565 S
O18 Fe7 2.093 1_655 S
O18 C30 1.381 1_655 S
O19 Fe2 1.935 1_556 S
O19 C30 1.421 . S
O20 Fe0 2.093 1_565 S
O20 C8 1.381 1_565 S
O21 Fe3 1.935 1_554 S
O21 C8 1.421 . S
C22 O9 1.381 1_655 S
C22 O10 1.421 . S
C23 O15 1.381 . S
C23 O16 1.421 1_655 S
C24 O25 1.381 . S
C24 O26 1.421 1_545 S
O25 Fe3 2.077 . S
O25 C24 1.381 . S
O26 Fe7 1.938 1_655 S
O26 C24 1.421 1_565 S
C27 O11 1.381 1_565 S
C27 O12 1.421 . S
O28 Fe2 2.077 . S
O28 C31 1.381 . S
O29 Fe0 1.938 1_565 S
O29 C31 1.421 1_655 S
C30 O18 1.381 1_455 S
C30 O19 1.421 . S
C31 O28 1.381 . S
C31 O29 1.421 1_455 S
C32 O34 1.252 . S
C32 O36 1.253 1_455 S
C33 O40 1.245 . S
C33 O41 1.259 1_655 S
O34 C32 1.252 . S
O34 Zn35 2.028 . S
Zn35 O34 2.028 . S
Zn35 O39 2.035 . S
Zn35 O41 2.035 . S
Zn35 O42 2.028 . S
O36 C32 1.253 1_655 S
O36 Zn37 2.035 . S
Zn37 O36 2.035 . S
Zn37 O38 2.028 . S
Zn37 O40 2.028 . S
Zn37 O43 2.035 . S
O38 Zn37 2.028 . S
O38 C44 1.245 . S
O39 Zn35 2.035 . S
O39 C44 1.259 1_455 S
O40 C33 1.245 . S
O40 Zn37 2.028 . S
O41 C33 1.259 1_455 S
O41 Zn35 2.035 . S
O42 Zn35 2.028 . S
O42 C45 1.252 . S
O43 Zn37 2.035 . S
O43 C45 1.253 1_655 S
C44 O38 1.245 . S
C44 O39 1.259 1_655 S
C45 O42 1.252 . S
C45 O43 1.253 1_455 S
C46 O48 1.245 . S
C46 O50 1.260 1_565 S
C47 O54 1.252 . S
C47 O55 1.253 1_545 S
O48 C46 1.245 . S
O48 Zn49 2.028 . S
Zn49 O48 2.028 . S
Zn49 O53 2.035 . S
Zn49 O55 2.035 . S
Zn49 O56 2.028 . S
O50 C46 1.260 1_545 S
O50 Zn51 2.035 . S
Zn51 O50 2.035 . S
Zn51 O52 2.028 . S
Zn51 O54 2.028 . S
Zn51 O57 2.035 . S
O52 Zn51 2.028 . S
O52 C58 1.252 . S
O53 Zn49 2.035 . S
O53 C58 1.253 1_565 S
O54 C47 1.252 . S
O54 Zn51 2.028 . S
O55 C47 1.253 1_565 S
O55 Zn49 2.035 . S
O56 Zn49 2.028 . S
O56 C59 1.245 . S
O57 Zn51 2.035 . S
O57 C59 1.260 1_545 S
C58 O52 1.252 . S
C58 O53 1.253 1_545 S
C59 O56 1.245 . S
C59 O57 1.260 1_565 S
H60 C66 0.930 . S
H61 C70 0.930 . S
H62 C75 0.929 . S
H63 C73 0.929 . S
H64 C68 0.929 . S
H65 C74 0.929 . S
C66 H60 0.930 . S
C66 C67 1.367 1_655 S
C66 C74 1.378 . S
C67 C66 1.367 1_455 S
C67 C75 1.433 . S
C68 H64 0.929 . S
C68 C70 1.378 . S
C68 C72 1.351 . S
C69 C72 1.463 . S
C69 C74 1.350 1_455 S
C69 N77 1.427 . S
C70 H61 0.930 . S
C70 C68 1.378 . S
C70 C71 1.367 . S
C71 C70 1.367 . S
C71 C73 1.433 1_455 S
C72 C68 1.351 . S
C72 C69 1.463 . S
C72 N76 1.427 1_455 S
C73 H63 0.929 . S
C73 C71 1.433 1_655 S
C73 N76 1.384 . S
C74 H65 0.929 . S
C74 C66 1.378 . S
C74 C69 1.350 1_655 S
C75 H62 0.929 . S
C75 C67 1.433 . S
C75 N77 1.384 . S
N76 C72 1.427 1_655 S
N76 C73 1.384 . S
N77 C69 1.427 . S
N77 C75 1.384 . S
H78 C84 0.930 . S
H79 C88 0.930 . S
H80 C93 0.929 . S
H81 C91 0.929 . S
H82 C86 0.929 . S
H83 C92 0.929 . S
C84 H78 0.930 . S
C84 C85 1.367 . S
C84 C92 1.378 . S
C85 C84 1.367 . S
C85 C93 1.433 1_545 S
C86 H82 0.929 . S
C86 C88 1.378 . S
C86 C90 1.350 . S
C87 C90 1.463 1_545 S
C87 C92 1.350 . S
C87 N95 1.427 1_545 S
C88 H79 0.930 . S
C88 C86 1.378 . S
C88 C89 1.382 . S
C89 C88 1.382 . S
C89 C91 1.418 1_565 S
C90 C86 1.350 . S
C90 C87 1.463 1_565 S
C90 N94 1.427 1_565 S
C91 H81 0.929 . S
C91 C89 1.418 1_545 S
C91 N94 1.384 . S
C92 H83 0.929 . S
C92 C84 1.378 . S
C92 C87 1.350 . S
C93 H80 0.929 . S
C93 C85 1.433 1_565 S
C93 N95 1.384 . S
N94 C90 1.427 1_545 S
N94 C91 1.384 . S
N95 C87 1.427 1_565 S
N95 C93 1.384 . S
H96 C102 0.930 . S
H97 C106 0.930 . S
H98 C111 0.929 . S
H99 C109 0.929 . S
H100 C104 0.929 . S
H101 C110 0.929 . S
C102 H96 0.930 . S
C102 C103 1.380 . S
C102 C110 1.378 . S
C103 C102 1.380 . S
C103 C111 1.419 1_655 S
C104 H100 0.929 . S
C104 C106 1.378 . S
C104 C108 1.350 . S
C105 C108 1.463 1_655 S
C105 C110 1.350 . S
C105 N113 1.427 1_655 S
C106 H97 0.930 . S
C106 C104 1.378 . S
C106 C107 1.367 . S
C107 C106 1.367 . S
C107 C109 1.433 1_455 S
C108 C104 1.350 . S
C108 C105 1.463 1_455 S
C108 N112 1.427 1_455 S
C109 H99 0.929 . S
C109 C107 1.433 1_655 S
C109 N112 1.384 . S
C110 H101 0.929 . S
C110 C102 1.378 . S
C110 C105 1.350 . S
C111 H98 0.929 . S
C111 C103 1.419 1_455 S
C111 N113 1.384 . S
N112 C108 1.427 1_655 S
N112 C109 1.384 . S
N113 C105 1.427 1_455 S
N113 C111 1.384 . S
H114 C120 0.930 . S
H115 C124 0.930 . S
H116 C129 0.929 . S
H117 C127 0.929 . S
H118 C122 0.929 . S
H119 C128 0.929 . S
C120 H114 0.930 . S
C120 C121 1.373 . S
C120 C128 1.378 . S
C121 C120 1.373 . S
C121 C129 1.427 1_545 S
C122 H118 0.929 . S
C122 C124 1.378 . S
C122 C126 1.354 . S
C123 C126 1.461 1_545 S
C123 C128 1.358 . S
C123 N131 1.419 1_545 S
C124 H115 0.930 . S
C124 C122 1.378 . S
C124 C125 1.369 . S
C125 C124 1.369 . S
C125 C127 1.431 1_565 S
C126 C122 1.354 . S
C126 C123 1.461 1_565 S
C126 N130 1.423 1_565 S
C127 H117 0.929 . S
C127 C125 1.431 1_545 S
C127 N130 1.384 . S
C128 H119 0.929 . S
C128 C120 1.378 . S
C128 C123 1.358 . S
C129 H116 0.929 . S
C129 C121 1.427 1_565 S
C129 N131 1.384 . S
N130 C126 1.423 1_545 S
N130 C127 1.384 . S
N131 C123 1.419 1_565 S
N131 C129 1.384 . S
H132 C138 0.930 . S
H133 C142 0.930 . S
H134 C147 0.929 . S
H135 C145 0.929 . S
H136 C140 0.929 . S
H137 C146 0.929 . S
C138 H132 0.930 . S
C138 C139 1.367 . S
C138 C146 1.378 . S
C139 C138 1.367 . S
C139 C147 1.433 1_455 S
C140 H136 0.929 . S
C140 C142 1.378 . S
C140 C144 1.350 1_655 S
C141 C144 1.463 . S
C141 C146 1.350 . S
C141 N149 1.427 1_455 S
C142 H133 0.930 . S
C142 C140 1.378 . S
C142 C143 1.367 1_655 S
C143 C142 1.367 1_455 S
C143 C145 1.433 . S
C144 C140 1.350 1_455 S
C144 C141 1.463 . S
C144 N148 1.427 . S
C145 H135 0.929 . S
C145 C143 1.433 . S
C145 N148 1.384 . S
C146 H137 0.929 . S
C146 C138 1.378 . S
C146 C141 1.350 . S
C147 H134 0.929 . S
C147 C139 1.433 1_655 S
C147 N149 1.384 . S
N148 C144 1.427 . S
N148 C145 1.384 . S
N149 C141 1.427 1_655 S
N149 C147 1.384 . S
H150 C156 0.930 . S
H151 C160 0.930 . S
H152 C165 0.929 . S
H153 C163 0.929 . S
H154 C158 0.929 . S
H155 C164 0.929 . S
C156 H150 0.930 . S
C156 C157 1.379 . S
C156 C164 1.378 . S
C157 C156 1.379 . S
C157 C165 1.421 1_545 S
C158 H154 0.929 . S
C158 C160 1.378 . S
C158 C162 1.361 . S
C159 C162 1.462 1_545 S
C159 C164 1.350 . S
C159 N167 1.427 1_545 S
C160 H151 0.930 . S
C160 C158 1.378 . S
C160 C161 1.373 . S
C161 C160 1.373 . S
C161 C163 1.427 1_565 S
C162 C158 1.361 . S
C162 C159 1.462 1_565 S
C162 N166 1.417 1_565 S
C163 H153 0.929 . S
C163 C161 1.427 1_545 S
C163 N166 1.384 . S
C164 H155 0.929 . S
C164 C156 1.378 . S
C164 C159 1.350 . S
C165 H152 0.929 . S
C165 C157 1.421 1_565 S
C165 N167 1.384 . S
N166 C162 1.417 1_545 S
N166 C163 1.384 . S
N167 C159 1.427 1_565 S
N167 C165 1.384 . S
H168 C174 0.930 . S
H169 C178 0.930 . S
H170 C183 0.929 . S
H171 C181 0.929 . S
H172 C176 0.929 . S
H173 C182 0.929 . S
C174 H168 0.930 . S
C174 C175 1.369 . S
C174 C182 1.378 . S
C175 C174 1.369 . S
C175 C183 1.431 1_455 S
C176 H172 0.929 . S
C176 C178 1.378 . S
C176 C180 1.351 . S
C177 C180 1.462 1_455 S
C177 C182 1.353 . S
C177 N185 1.424 1_455 S
C178 H169 0.930 . S
C178 C176 1.378 . S
C178 C179 1.367 . S
C179 C178 1.367 . S
C179 C181 1.433 1_655 S
C180 C176 1.351 . S
C180 C177 1.462 1_655 S
C180 N184 1.427 1_655 S
C181 H171 0.929 . S
C181 C179 1.433 1_455 S
C181 N184 1.384 . S
C182 H173 0.929 . S
C182 C174 1.378 . S
C182 C177 1.353 . S
C183 H170 0.929 . S
C183 C175 1.431 1_655 S
C183 N185 1.384 . S
N184 C180 1.427 1_455 S
N184 C181 1.384 . S
N185 C177 1.424 1_655 S
N185 C183 1.384 . S
H186 C192 0.930 . S
H187 C196 0.930 . S
H188 C201 0.929 . S
H189 C199 0.929 . S
H190 C194 0.929 . S
H191 C200 0.929 . S
C192 H186 0.930 . S
C192 C193 1.367 . S
C192 C200 1.378 . S
C193 C192 1.367 . S
C193 C201 1.433 1_565 S
C194 H190 0.929 . S
C194 C196 1.378 . S
C194 C198 1.350 . S
C195 C198 1.463 1_565 S
C195 C200 1.350 . S
C195 N203 1.427 1_565 S
C196 H187 0.930 . S
C196 C194 1.378 . S
C196 C197 1.367 . S
C197 C196 1.367 . S
C197 C199 1.433 1_545 S
C198 C194 1.350 . S
C198 C195 1.463 1_545 S
C198 N202 1.427 1_545 S
C199 H189 0.929 . S
C199 C197 1.433 1_565 S
C199 N202 1.384 . S
C200 H191 0.929 . S
C200 C192 1.378 . S
C200 C195 1.350 . S
C201 H188 0.929 . S
C201 C193 1.433 1_545 S
C201 N203 1.384 . S
N202 C198 1.427 1_565 S
N202 C199 1.384 . S
N203 C195 1.427 1_545 S
N203 C201 1.384 . S
C67 C22 1.410 1_455 S
C71 C33 1.458 1_455 S
C85 C8 1.400 . S
C89 C59 1.457 . S
C103 C31 1.403 1_655 S
C107 C45 1.457 . S
C121 C17 1.410 1_545 S
C125 C47 1.458 1_565 S
C139 C30 1.404 . S
C143 C32 1.459 . S
C157 C27 1.409 1_545 S
C161 C58 1.460 1_565 S
C179 C44 1.459 . S
C175 C23 1.411 1_455 S
C193 C24 1.412 1_565 S
C197 C46 1.460 1_545 S
