# Generated by pormake.
# Topology scu, (8,4)-cn, num edge types: 1
# Building blocks:
#     Node 0, Type 0, BuildingBlock: GIZVER_clean_sbu_0, # of connection points: 8
#     Node 1, Type 1, BuildingBlock: NAWXER_clean_sbu_0, # of connection points: 4
#     Node 2, Type 1, BuildingBlock: NAWXER_clean_sbu_0, # of connection points: 4
#     Edge 3, Type (0, 1), BuildingBlock: UKIBIB_clean_linker_0, # of connection points: 2
#     Edge 4, Type (0, 1), BuildingBlock: UKIBIB_clean_linker_0, # of connection points: 2
#     Edge 5, Type (0, 1), BuildingBlock: UKIBIB_clean_linker_0, # of connection points: 2
#     Edge 6, Type (0, 1), BuildingBlock: UKIBIB_clean_linker_0, # of connection points: 2
#     Edge 7, Type (0, 1), BuildingBlock: UKIBIB_clean_linker_0, # of connection points: 2
#     Edge 8, Type (0, 1), BuildingBlock: UKIBIB_clean_linker_0, # of connection points: 2
#     Edge 9, Type (0, 1), BuildingBlock: UKIBIB_clean_linker_0, # of connection points: 2
#     Edge 10, Type (0, 1), BuildingBlock: UKIBIB_clean_linker_0, # of connection points: 2
# Relax obj value: 0.019
# Max RMSD: 0.086
# Mean RMSD: 0.061
data_MOF--net-scu--node1-GIZVER_clean_sbu_0--node2-NAWXER_clean_sbu_0--edge1-UKIBIB_clean_linker_0
_symmetry_space_group_name_H-M    P1
_symmetry_Int_Tables_number       1
_symmetry_cell_setting            triclinic
loop_
_symmetry_equiv_pos_as_xyz
'x, y, z'
_cell_length_a     31.188228
_cell_length_b     32.19834
_cell_length_c     30.344318
_cell_angle_alpha  97.385236
_cell_angle_beta   84.110791
_cell_angle_gamma 112.96341
loop_
_atom_site_label
_atom_site_type_symbol
_atom_site_fract_x
_atom_site_fract_y
_atom_site_fract_z
_atom_type_partial_charge
Co0 Co 0.00259 0.94606 0.09229 0.0
Co1 Co 0.06891 0.01712 0.07702 0.0
Co2 Co -0.00147 0.00161 0.00146 0.0
O3 O 0.03055 0.97418 0.03757 0.0
H4 H 0.04745 0.95823 0.01903 0.0
O5 O 0.96661 0.02915 0.96598 0.0
Co6 Co 0.99227 0.05483 0.91014 0.0
Co7 Co 0.92212 0.98543 0.93213 0.0
H8 H 0.9522 0.04724 0.98481 0.0
O9 O 0.12466 0.01663 0.08351 0.0
O10 O 0.05744 0.98769 0.12695 0.0
O11 O 0.05805 0.0703 0.09468 0.0
O12 O 0.01084 0.06082 0.04094 0.0
O13 O 0.05807 0.02646 0.96291 0.0
O14 O 0.01404 0.08092 0.85966 0.0
O15 O 0.96713 0.09842 0.91358 0.0
O16 O 0.0232 0.01471 0.89929 0.0
O17 O 0.9858 0.94284 0.9611 0.0
O18 O 0.92603 0.92783 0.91924 0.0
O19 O 0.93708 0.01049 0.87891 0.0
O20 O 0.87008 0.99455 0.92256 0.0
C21 C 0.00188 0.89355 0.12664 0.0
C22 C 0.93727 0.98188 0.08238 0.0
C23 C 0.03171 0.08284 0.07575 0.0
C24 C 0.10259 0.9987 0.11943 0.0
C25 C 0.98988 0.10524 0.87467 0.0
C26 C 0.05883 0.02069 0.92018 0.0
C27 C 0.95809 0.91777 0.93142 0.0
C28 C 0.89406 0.00769 0.88578 0.0
O29 O 0.97775 0.91799 0.14091 0.0
O30 O 0.02678 0.90164 0.08879 0.0
O31 O 0.93878 0.97663 0.03966 0.0
O32 O 0.97214 0.98667 0.10385 0.0
C33 C 0.99396 0.56209 0.56731 0.0
C34 C 0.99453 0.43826 0.43769 0.0
O35 O 0.03187 0.56032 0.54925 0.0
Zn36 Zn 0.04539 0.51861 0.49938 0.0
O37 O 0.955 0.53304 0.55462 0.0
Zn38 Zn 0.94944 0.48372 0.50544 0.0
O39 O 0.96182 0.44733 0.54882 0.0
O40 O 0.03875 0.47281 0.54231 0.0
O41 O 0.95589 0.43791 0.4561 0.0
O42 O 0.03281 0.46847 0.45014 0.0
O43 O 0.03956 0.55764 0.45504 0.0
O44 O 0.96266 0.53119 0.46226 0.0
C45 C -2e-05 0.44656 0.55897 0.0
C46 C 0.00094 0.55787 0.44528 0.0
C47 C 0.55397 0.99988 0.55951 0.0
C48 C 0.44044 0.99781 0.44491 0.0
O49 O 0.52768 0.9618 0.54151 0.0
Zn50 Zn 0.48018 0.95301 0.49877 0.0
O51 O 0.5524 0.03654 0.55007 0.0
Zn52 Zn 0.5164 0.04939 0.50579 0.0
O53 O 0.46273 0.04116 0.55109 0.0
O54 O 0.43958 0.96685 0.54995 0.0
O55 O 0.4698 0.03557 0.46026 0.0
O56 O 0.43914 0.96084 0.45672 0.0
O57 O 0.53306 0.96582 0.45183 0.0
O58 O 0.56109 0.04059 0.45627 0.0
C59 C 0.43565 0.00384 0.5655 0.0
C60 C 0.56246 0.00295 0.439 0.0
C61 C 0.03786 0.16267 0.09561 0.0
C62 C 0.01601 0.11651 0.10168 0.0
C63 C 0.03033 0.19495 0.12765 0.0
C64 C 0.96468 0.35757 0.40584 0.0
C65 C 0.9955 0.40264 0.40255 0.0
C66 C 0.96591 0.3236 0.37267 0.0
H67 H 0.96819 0.06745 0.14448 0.0
H68 H 0.95423 0.12376 0.19969 0.0
H69 H 0.05254 0.44775 0.36308 0.0
H70 H 0.05354 0.3882 0.3041 0.0
C71 C 0.98459 0.10286 0.13864 0.0
C72 C 0.97692 0.13496 0.17039 0.0
C73 C 0.02822 0.4132 0.3661 0.0
C74 C 0.0289 0.37934 0.33259 0.0
C75 C 0.00104 0.18111 0.16578 0.0
C76 C -0.00073 0.21384 0.20219 0.0
C77 C -0.00267 0.24072 0.23304 0.0
C78 C -0.00248 0.33456 0.33564 0.0
C79 C 0.99664 0.30029 0.29996 0.0
C80 C 0.99676 0.27236 0.26954 0.0
H81 H 0.06267 0.17377 0.06767 0.0
H82 H 0.04919 0.23065 0.1238 0.0
H83 H 0.94001 0.34859 0.43427 0.0
H84 H 0.94182 0.28897 0.37564 0.0
C85 C 0.87658 0.01487 0.10595 0.0
C86 C 0.89486 0.98181 0.10895 0.0
C87 C 0.84224 0.01971 0.13765 0.0
C88 C 0.61607 0.96732 0.39959 0.0
C89 C 0.59895 0.00223 0.40418 0.0
C90 C 0.65081 0.96688 0.3666 0.0
H91 H 0.89118 0.92748 0.14636 0.0
H92 H 0.83019 0.93491 0.20053 0.0
H93 H 0.60438 0.06369 0.378 0.0
H94 H 0.66445 0.06224 0.31964 0.0
C95 C 0.87724 0.95285 0.14306 0.0
C96 C 0.84267 0.95726 0.17416 0.0
C97 C 0.61718 0.0366 0.37532 0.0
C98 C 0.6514 0.03578 0.34202 0.0
C99 C 0.8256 0.99117 0.17217 0.0
C100 C 0.7921 0.9969 0.20651 0.0
C101 C 0.76426 0.99906 0.2366 0.0
C102 C 0.6683 0.00094 0.33746 0.0
C103 C 0.70269 0.99979 0.30216 0.0
C104 C 0.73145 0.99977 0.2723 0.0
H105 H 0.89059 0.0384 0.08072 0.0
H106 H 0.8296 0.04634 0.13587 0.0
H107 H 0.60298 0.94068 0.42177 0.0
H108 H 0.6637 0.93983 0.36366 0.0
C109 C 0.97867 0.85668 0.19823 0.0
C110 C 0.00286 0.85992 0.15598 0.0
C111 C 0.98053 0.82729 0.22754 0.0
C112 C 0.029 0.59663 0.37549 0.0
C113 C 0.00045 0.59013 0.41494 0.0
C114 C 0.02922 0.62773 0.34706 0.0
H115 H 0.04879 0.83488 0.11236 0.0
H116 H 0.05135 0.78264 0.16382 0.0
H117 H 0.94998 0.61113 0.45596 0.0
H118 H 0.95142 0.6667 0.40657 0.0
C119 C 0.02927 0.83292 0.14418 0.0
C120 C 0.03095 0.80323 0.17368 0.0
C121 C 0.97205 0.61531 0.42552 0.0
C122 C 0.97294 0.64708 0.39744 0.0
C123 C 0.00646 0.8002 0.21547 0.0
C124 C 0.00696 0.76899 0.24586 0.0
C125 C 0.00632 0.74347 0.2723 0.0
C126 C 0.00152 0.65341 0.35798 0.0
C127 C 0.00253 0.68597 0.32853 0.0
C128 C 0.00434 0.71281 0.30308 0.0
H129 H 0.95842 0.87724 0.20908 0.0
H130 H 0.96156 0.82571 0.25969 0.0
H131 H 0.05077 0.57725 0.36644 0.0
H132 H 0.05122 0.63187 0.31659 0.0
C133 C 0.11393 0.96055 0.18177 0.0
C134 C 0.13082 0.99596 0.15409 0.0
C135 C 0.1426 0.95717 0.21251 0.0
C136 C 0.41478 0.03441 0.39064 0.0
C137 C 0.40622 0.99711 0.41465 0.0
C138 C 0.38193 0.03345 0.36213 0.0
H139 H 0.18994 0.05676 0.13807 0.0
H140 H 0.23936 0.05152 0.19285 0.0
H141 H 0.35616 0.93066 0.42926 0.0
H142 H 0.29865 0.92937 0.37947 0.0
C143 C 0.17626 0.0287 0.15855 0.0
C144 C 0.20449 0.02581 0.18975 0.0
C145 C 0.36398 0.95943 0.41046 0.0
C146 C 0.33108 0.95873 0.38232 0.0
C147 C 0.18788 0.98989 0.21648 0.0
C148 C 0.21759 0.98737 0.24813 0.0
C149 C 0.24486 0.98802 0.27365 0.0
C150 C 0.34018 0.99549 0.35785 0.0
C151 C 0.3068 0.99362 0.32785 0.0
C152 C 0.27811 0.99098 0.30299 0.0
H153 H 0.07913 0.93517 0.17914 0.0
H154 H 0.12946 0.92916 0.23308 0.0
H155 H 0.447 0.06398 0.39345 0.0
H156 H 0.3892 0.06213 0.34333 0.0
C157 C 0.93409 0.84895 0.87693 0.0
C158 C 0.96829 0.88057 0.90423 0.0
C159 C 0.94532 0.8196 0.84429 0.0
C160 C 0.03725 0.62469 0.62362 0.0
C161 C 0.99563 0.599 0.60239 0.0
C162 C 0.03896 0.65964 0.65672 0.0
H163 H 0.04119 0.90507 0.91922 0.0
H164 H 0.06064 0.85281 0.86177 0.0
H165 H 0.92371 0.59083 0.59819 0.0
H166 H 0.92698 0.65231 0.65629 0.0
C167 C 0.01383 0.88072 0.89924 0.0
C168 C 0.02512 0.85124 0.86618 0.0
C169 C 0.95604 0.60958 0.61441 0.0
C170 C 0.95792 0.6448 0.64736 0.0
C171 C 0.99092 0.82116 0.83812 0.0
C172 C 0.00165 0.79232 0.80203 0.0
C173 C 0.00458 0.76622 0.77067 0.0
C174 C -0.0007 0.66967 0.66885 0.0
C175 C 0.00095 0.70443 0.70441 0.0
C176 C 0.00337 0.73371 0.73429 0.0
H177 H 0.89885 0.84804 0.87961 0.0
H178 H 0.91851 0.79648 0.82292 0.0
H179 H 0.0684 0.61749 0.61507 0.0
H180 H 0.07115 0.67857 0.67312 0.0
C181 C 0.11255 0.04306 0.85373 0.0
C182 C 0.10081 0.02078 0.89278 0.0
C183 C 0.14728 0.0384 0.82314 0.0
C184 C 0.38639 0.97302 0.633 0.0
C185 C 0.39852 0.00307 0.59993 0.0
C186 C 0.35162 0.97271 0.66606 0.0
H187 H 0.1163 0.9762 0.9306 0.0
H188 H 0.17765 0.96769 0.87618 0.0
H189 H 0.3826 0.05472 0.57396 0.0
H190 H 0.32082 0.05349 0.63168 0.0
C191 C 0.12532 0.99437 0.90117 0.0
C192 C 0.15994 0.98922 0.87002 0.0
C193 C 0.37441 0.0319 0.59968 0.0
C194 C 0.33908 0.03104 0.63238 0.0
C195 C 0.17062 0.01095 0.83071 0.0
C196 C 0.20474 0.00507 0.79733 0.0
C197 C 0.23241 0.00272 0.76722 0.0
C198 C 0.32799 0.00182 0.66598 0.0
C199 C 0.2935 0.00246 0.70124 0.0
C200 C 0.26485 0.00208 0.73126 0.0
H201 H 0.09409 0.06347 0.84636 0.0
H202 H 0.15519 0.05551 0.79305 0.0
H203 H 0.40448 0.95046 0.63383 0.0
H204 H 0.34346 0.95003 0.6919 0.0
C205 C 0.99005 0.12832 0.79893 0.0
C206 C 0.98674 0.13779 0.84554 0.0
C207 C 0.9897 0.15909 0.7704 0.0
C208 C 0.99696 0.42391 0.63527 0.0
C209 C -0.00123 0.41351 0.58896 0.0
C210 C 0.99507 0.3921 0.66372 0.0
H211 H 0.98022 0.18721 0.89855 0.0
H212 H 0.98043 0.24173 0.84822 0.0
H213 H -0.0013 0.36187 0.53573 0.0
H214 H 0.99539 0.30598 0.58571 0.0
C215 C 0.98247 0.17875 0.8629 0.0
C216 C 0.98276 0.20995 0.83417 0.0
C217 C -0.00205 0.37068 0.57142 0.0
C218 C 0.99594 0.33882 0.59989 0.0
C219 C 0.98659 0.20034 0.78775 0.0
C220 C 0.98802 0.23272 0.75776 0.0
C221 C 0.98932 0.25901 0.73186 0.0
C222 C 0.99461 0.3494 0.64624 0.0
C223 C 0.99272 0.31665 0.6759 0.0
C224 C 0.99114 0.28992 0.70139 0.0
H225 H 0.99291 0.0969 0.7844 0.0
H226 H 0.99238 0.15081 0.73472 0.0
H227 H 0.99705 0.4566 0.64938 0.0
H228 H 0.99391 0.40086 0.69939 0.0
C229 C 0.86785 0.98968 0.80853 0.0
C230 C 0.86998 0.01469 0.85023 0.0
C231 C 0.83823 0.99055 0.7774 0.0
C232 C 0.59933 0.03477 0.6268 0.0
C233 C 0.58821 0.00183 0.59016 0.0
C234 C 0.6324 0.03679 0.65556 0.0
H235 H 0.84519 0.06147 0.8919 0.0
H236 H 0.79435 0.06415 0.83656 0.0
H237 H 0.60348 0.94628 0.55366 0.0
H238 H 0.66226 0.95052 0.60386 0.0
C239 C 0.84393 0.04207 0.85977 0.0
C240 C 0.81494 0.0435 0.8284 0.0
C241 C 0.61101 0.9714 0.58223 0.0
C242 C 0.64458 0.97392 0.61063 0.0
C243 C 0.8113 0.01698 0.78757 0.0
C244 C 0.77832 0.01523 0.75707 0.0
C245 C 0.75071 0.01371 0.73144 0.0
C246 C 0.65512 0.00646 0.64742 0.0
C247 C 0.68921 0.00877 0.6769 0.0
C248 C 0.71772 0.01109 0.70188 0.0
H249 H 0.8871 0.96772 0.80099 0.0
H250 H 0.83535 0.96966 0.74598 0.0
H251 H 0.58206 0.05851 0.63345 0.0
H252 H 0.64027 0.06202 0.68404 0.0
loop_
_geom_bond_atom_site_label_1
_geom_bond_atom_site_label_2
_geom_bond_distance
_geom_bond_site_symmetry_2
_ccdc_geom_bond_type
Co0 O3 2.042 . S
Co0 O10 2.264 1_565 S
Co0 O29 2.286 1_455 S
Co0 O30 2.069 . S
Co0 O32 2.015 1_455 S
Co1 O3 2.122 1_545 S
Co1 O9 2.073 . S
Co1 O10 2.327 . S
Co1 O11 1.976 . S
Co2 O3 2.095 1_545 S
Co2 O5 2.079 1_454 S
Co2 O12 2.136 . S
Co2 O13 2.143 1_554 S
Co2 O17 2.087 1_444 S
Co2 O31 2.145 1_445 S
O3 Co0 2.042 . S
O3 Co1 2.122 1_565 S
O3 Co2 2.095 1_565 S
O3 H4 0.980 . S
H4 O3 0.980 . S
O5 Co2 2.079 1_656 S
O5 Co6 2.042 . S
O5 Co7 2.122 1_545 S
O5 H8 0.980 . S
Co6 O5 2.042 . S
Co6 O14 2.286 1_655 S
Co6 O15 2.069 . S
Co6 O16 2.015 1_655 S
Co6 O19 2.268 . S
Co7 O5 2.122 1_565 S
Co7 O18 1.976 . S
Co7 O19 2.317 1_565 S
Co7 O20 2.073 . S
H8 O5 0.980 . S
O9 Co1 2.073 . S
O9 C24 1.245 1_545 S
O10 Co0 2.264 1_545 S
O10 Co1 2.327 . S
O10 C24 1.257 1_545 S
O11 Co1 1.976 . S
O11 C23 1.251 . S
O12 Co2 2.136 . S
O12 C23 1.274 . S
O13 Co2 2.143 1_556 S
O13 C26 1.246 . S
O14 Co6 2.286 1_455 S
O14 C25 1.259 1_455 S
O15 Co6 2.069 . S
O15 C25 1.289 . S
O16 Co6 2.015 1_455 S
O16 C26 1.257 . S
O17 Co2 2.087 1_666 S
O17 C27 1.274 . S
O18 Co7 1.976 . S
O18 C27 1.251 . S
O19 Co6 2.268 . S
O19 Co7 2.317 1_545 S
O19 C28 1.265 . S
O20 Co7 2.073 . S
O20 C28 1.245 1_565 S
C21 O29 1.259 1_455 S
C21 O30 1.289 . S
C22 O31 1.246 . S
C22 O32 1.257 . S
C23 O11 1.251 . S
C23 O12 1.274 . S
C24 O9 1.245 1_565 S
C24 O10 1.257 1_565 S
C25 O14 1.259 1_655 S
C25 O15 1.289 . S
C26 O13 1.246 . S
C26 O16 1.257 . S
C27 O17 1.274 . S
C27 O18 1.251 . S
C28 O19 1.265 . S
C28 O20 1.245 1_545 S
O29 Co0 2.286 1_655 S
O29 C21 1.259 1_655 S
O30 Co0 2.069 . S
O30 C21 1.289 . S
O31 Co2 2.145 1_665 S
O31 C22 1.246 . S
O32 Co0 2.015 1_655 S
O32 C22 1.257 . S
C33 O35 1.263 . S
C33 O37 1.247 1_455 S
C34 O41 1.241 1_455 S
C34 O42 1.263 . S
O35 C33 1.263 . S
O35 Zn36 2.028 . S
Zn36 O35 2.028 . S
Zn36 O40 2.035 . S
Zn36 O42 2.035 . S
Zn36 O43 2.028 . S
O37 C33 1.247 1_655 S
O37 Zn38 2.035 . S
Zn38 O37 2.035 . S
Zn38 O39 2.028 . S
Zn38 O41 2.028 . S
Zn38 O44 2.035 . S
O39 Zn38 2.028 . S
O39 C45 1.240 1_655 S
O40 Zn36 2.035 . S
O40 C45 1.262 . S
O41 C34 1.241 1_655 S
O41 Zn38 2.028 . S
O42 C34 1.263 . S
O42 Zn36 2.035 . S
O43 Zn36 2.028 . S
O43 C46 1.263 . S
O44 Zn38 2.035 . S
O44 C46 1.247 1_655 S
C45 O39 1.240 1_455 S
C45 O40 1.262 . S
C46 O43 1.263 . S
C46 O44 1.247 1_455 S
C47 O49 1.235 1_545 S
C47 O51 1.277 . S
C48 O55 1.247 . S
C48 O56 1.258 1_545 S
O49 C47 1.235 1_565 S
O49 Zn50 2.028 . S
Zn50 O49 2.028 . S
Zn50 O54 2.035 . S
Zn50 O56 2.035 . S
Zn50 O57 2.028 . S
O51 C47 1.277 . S
O51 Zn52 2.035 . S
Zn52 O51 2.035 . S
Zn52 O53 2.028 . S
Zn52 O55 2.028 . S
Zn52 O58 2.035 . S
O53 Zn52 2.028 . S
O53 C59 1.247 . S
O54 Zn50 2.035 . S
O54 C59 1.258 1_565 S
O55 C48 1.247 . S
O55 Zn52 2.028 . S
O56 C48 1.258 1_565 S
O56 Zn50 2.035 . S
O57 Zn50 2.028 . S
O57 C60 1.234 1_565 S
O58 Zn52 2.035 . S
O58 C60 1.275 . S
C59 O53 1.247 . S
C59 O54 1.258 1_545 S
C60 O57 1.234 1_545 S
C60 O58 1.275 . S
C61 C62 1.332 . S
C61 C63 1.345 . S
C61 H81 0.932 . S
C62 C61 1.332 . S
C62 C71 1.332 1_455 S
C63 C61 1.345 . S
C63 C75 1.334 . S
C63 H82 0.928 . S
C64 C65 1.329 1_655 S
C64 C66 1.345 . S
C64 H83 0.932 . S
C65 C64 1.329 1_455 S
C65 C73 1.339 . S
C66 C64 1.345 . S
C66 C78 1.334 1_655 S
C66 H84 0.928 . S
H67 C71 0.932 . S
H68 C72 0.928 . S
H69 C73 0.932 . S
H70 C74 0.928 . S
C71 C62 1.332 1_655 S
C71 H67 0.932 . S
C71 C72 1.345 . S
C72 H68 0.928 . S
C72 C71 1.345 . S
C72 C75 1.334 1_655 S
C73 C65 1.339 . S
C73 H69 0.932 . S
C73 C74 1.345 . S
C74 H70 0.928 . S
C74 C73 1.345 . S
C74 C78 1.334 . S
C75 C63 1.334 . S
C75 C72 1.334 1_455 S
C75 C76 1.487 . S
C76 C75 1.487 . S
C76 C77 1.185 . S
C77 C76 1.185 . S
C77 C80 1.482 . S
C78 C66 1.334 1_455 S
C78 C74 1.334 . S
C78 C79 1.487 . S
C79 C78 1.487 . S
C79 C80 1.185 . S
C80 C77 1.482 . S
C80 C79 1.185 . S
H81 C61 0.932 . S
H82 C63 0.928 . S
H83 C64 0.932 . S
H84 C66 0.928 . S
C85 C86 1.332 1_545 S
C85 C87 1.345 . S
C85 H105 0.932 . S
C86 C85 1.332 1_565 S
C86 C95 1.332 . S
C87 C85 1.345 . S
C87 C99 1.334 1_545 S
C87 H106 0.928 . S
C88 C89 1.323 1_565 S
C88 C90 1.345 . S
C88 H107 0.932 . S
C89 C88 1.323 1_545 S
C89 C97 1.339 . S
C90 C88 1.345 . S
C90 C102 1.334 . S
C90 H108 0.928 . S
H91 C95 0.932 . S
H92 C96 0.928 . S
H93 C97 0.932 . S
H94 C98 0.928 . S
C95 C86 1.332 . S
C95 H91 0.932 . S
C95 C96 1.345 . S
C96 H92 0.928 . S
C96 C95 1.345 . S
C96 C99 1.334 . S
C97 C89 1.339 . S
C97 H93 0.932 . S
C97 C98 1.345 . S
C98 H94 0.928 . S
C98 C97 1.345 . S
C98 C102 1.334 1_545 S
C99 C87 1.334 1_565 S
C99 C96 1.334 . S
C99 C100 1.487 . S
C100 C99 1.487 . S
C100 C101 1.185 . S
C101 C100 1.185 . S
C101 C104 1.482 . S
C102 C90 1.334 . S
C102 C98 1.334 1_565 S
C102 C103 1.487 . S
C103 C102 1.487 . S
C103 C104 1.185 . S
C104 C101 1.482 . S
C104 C103 1.185 . S
H105 C85 0.932 . S
H106 C87 0.928 . S
H107 C88 0.932 . S
H108 C90 0.928 . S
C109 C110 1.332 1_655 S
C109 C111 1.345 . S
C109 H129 0.932 . S
C110 C109 1.332 1_455 S
C110 C119 1.332 . S
C111 C109 1.345 . S
C111 C123 1.334 1_655 S
C111 H130 0.928 . S
C112 C113 1.332 . S
C112 C114 1.345 . S
C112 H131 0.932 . S
C113 C112 1.332 . S
C113 C121 1.332 1_455 S
C114 C112 1.345 . S
C114 C126 1.334 . S
C114 H132 0.928 . S
H115 C119 0.932 . S
H116 C120 0.928 . S
H117 C121 0.932 . S
H118 C122 0.928 . S
C119 C110 1.332 . S
C119 H115 0.932 . S
C119 C120 1.345 . S
C120 H116 0.928 . S
C120 C119 1.345 . S
C120 C123 1.334 . S
C121 C113 1.332 1_655 S
C121 H117 0.932 . S
C121 C122 1.345 . S
C122 H118 0.928 . S
C122 C121 1.345 . S
C122 C126 1.334 1_655 S
C123 C111 1.334 1_455 S
C123 C120 1.334 . S
C123 C124 1.487 . S
C124 C123 1.487 . S
C124 C125 1.185 . S
C125 C124 1.185 . S
C125 C128 1.482 . S
C126 C114 1.334 . S
C126 C122 1.334 1_455 S
C126 C127 1.487 . S
C127 C126 1.487 . S
C127 C128 1.185 . S
C128 C125 1.482 . S
C128 C127 1.185 . S
H129 C109 0.932 . S
H130 C111 0.928 . S
H131 C112 0.932 . S
H132 C114 0.928 . S
C133 C134 1.332 . S
C133 C135 1.345 . S
C133 H153 0.932 . S
C134 C133 1.332 . S
C134 C143 1.332 1_565 S
C135 C133 1.345 . S
C135 C147 1.334 . S
C135 H154 0.928 . S
C136 C137 1.329 1_545 S
C136 C138 1.345 . S
C136 H155 0.932 . S
C137 C136 1.329 1_565 S
C137 C145 1.333 . S
C138 C136 1.345 . S
C138 C150 1.334 1_545 S
C138 H156 0.928 . S
H139 C143 0.932 . S
H140 C144 0.928 . S
H141 C145 0.932 . S
H142 C146 0.928 . S
C143 C134 1.332 1_545 S
C143 H139 0.932 . S
C143 C144 1.345 . S
C144 H140 0.928 . S
C144 C143 1.345 . S
C144 C147 1.334 1_545 S
C145 C137 1.333 . S
C145 H141 0.932 . S
C145 C146 1.345 . S
C146 H142 0.928 . S
C146 C145 1.345 . S
C146 C150 1.334 . S
C147 C135 1.334 . S
C147 C144 1.334 1_565 S
C147 C148 1.487 . S
C148 C147 1.487 . S
C148 C149 1.185 . S
C149 C148 1.185 . S
C149 C152 1.482 . S
C150 C138 1.334 1_565 S
C150 C146 1.334 . S
C150 C151 1.487 . S
C151 C150 1.487 . S
C151 C152 1.185 . S
C152 C149 1.482 . S
C152 C151 1.185 . S
H153 C133 0.932 . S
H154 C135 0.928 . S
H155 C136 0.932 . S
H156 C138 0.928 . S
C157 C158 1.332 . S
C157 C159 1.345 . S
C157 H177 0.932 . S
C158 C157 1.332 . S
C158 C167 1.332 1_655 S
C159 C157 1.345 . S
C159 C171 1.334 . S
C159 H178 0.928 . S
C160 C161 1.336 . S
C160 C162 1.345 . S
C160 H179 0.932 . S
C161 C160 1.336 . S
C161 C169 1.326 1_455 S
C162 C160 1.345 . S
C162 C174 1.322 1_455 S
C162 H180 0.928 . S
H163 C167 0.932 . S
H164 C168 0.928 . S
H165 C169 0.932 . S
H166 C170 0.928 . S
C167 C158 1.332 1_455 S
C167 H163 0.932 . S
C167 C168 1.345 . S
C168 H164 0.928 . S
C168 C167 1.345 . S
C168 C171 1.334 1_455 S
C169 C161 1.326 1_655 S
C169 H165 0.932 . S
C169 C170 1.345 . S
C170 H166 0.928 . S
C170 C169 1.345 . S
C170 C174 1.343 . S
C171 C159 1.334 . S
C171 C168 1.334 1_655 S
C171 C172 1.487 . S
C172 C171 1.487 . S
C172 C173 1.185 . S
C173 C172 1.185 . S
C173 C176 1.482 . S
C174 C162 1.322 1_655 S
C174 C170 1.343 . S
C174 C175 1.483 . S
C175 C174 1.483 . S
C175 C176 1.191 . S
C176 C173 1.482 . S
C176 C175 1.191 . S
H177 C157 0.932 . S
H178 C159 0.928 . S
H179 C160 0.932 . S
H180 C162 0.928 . S
C181 C182 1.332 . S
C181 C183 1.345 . S
C181 H201 0.932 . S
C182 C181 1.332 . S
C182 C191 1.332 1_545 S
C183 C181 1.345 . S
C183 C195 1.334 . S
C183 H202 0.928 . S
C184 C185 1.332 1_565 S
C184 C186 1.345 . S
C184 H203 0.932 . S
C185 C184 1.332 1_545 S
C185 C193 1.332 . S
C186 C184 1.345 . S
C186 C198 1.334 1_565 S
C186 H204 0.928 . S
H187 C191 0.932 . S
H188 C192 0.928 . S
H189 C193 0.932 . S
H190 C194 0.928 . S
C191 C182 1.332 1_565 S
C191 H187 0.932 . S
C191 C192 1.345 . S
C192 H188 0.928 . S
C192 C191 1.345 . S
C192 C195 1.334 1_565 S
C193 C185 1.332 . S
C193 H189 0.932 . S
C193 C194 1.345 . S
C194 H190 0.928 . S
C194 C193 1.345 . S
C194 C198 1.334 . S
C195 C183 1.334 . S
C195 C192 1.334 1_545 S
C195 C196 1.487 . S
C196 C195 1.487 . S
C196 C197 1.185 . S
C197 C196 1.185 . S
C197 C200 1.482 . S
C198 C186 1.334 1_545 S
C198 C194 1.334 . S
C198 C199 1.487 . S
C199 C198 1.487 . S
C199 C200 1.185 . S
C200 C197 1.482 . S
C200 C199 1.185 . S
H201 C181 0.932 . S
H202 C183 0.928 . S
H203 C184 0.932 . S
H204 C186 0.928 . S
C205 C206 1.332 . S
C205 C207 1.345 . S
C205 H225 0.932 . S
C206 C205 1.332 . S
C206 C215 1.332 . S
C207 C205 1.345 . S
C207 C219 1.334 . S
C207 H226 0.928 . S
C208 C209 1.332 . S
C208 C210 1.345 . S
C208 H227 0.925 . S
C209 C208 1.332 . S
C209 C217 1.336 . S
C210 C208 1.345 . S
C210 C222 1.334 . S
C210 H228 0.928 . S
H211 C215 0.932 . S
H212 C216 0.928 . S
H213 C217 0.932 . S
H214 C218 0.928 . S
C215 C206 1.332 . S
C215 H211 0.932 . S
C215 C216 1.345 . S
C216 H212 0.928 . S
C216 C215 1.345 . S
C216 C219 1.334 . S
C217 C209 1.336 . S
C217 H213 0.932 . S
C217 C218 1.338 . S
C218 H214 0.928 . S
C218 C217 1.338 . S
C218 C222 1.334 . S
C219 C207 1.334 . S
C219 C216 1.334 . S
C219 C220 1.487 . S
C220 C219 1.487 . S
C220 C221 1.185 . S
C221 C220 1.185 . S
C221 C224 1.482 . S
C222 C210 1.334 . S
C222 C218 1.334 . S
C222 C223 1.487 . S
C223 C222 1.487 . S
C223 C224 1.185 . S
C224 C221 1.482 . S
C224 C223 1.185 . S
H225 C205 0.932 . S
H226 C207 0.928 . S
H227 C208 0.925 . S
H228 C210 0.928 . S
C229 C230 1.332 1_565 S
C229 C231 1.345 . S
C229 H249 0.932 . S
C230 C229 1.332 1_545 S
C230 C239 1.332 . S
C231 C229 1.345 . S
C231 C243 1.334 1_565 S
C231 H250 0.928 . S
C232 C233 1.332 . S
C232 C234 1.345 . S
C232 H251 0.932 . S
C233 C232 1.332 . S
C233 C241 1.332 1_545 S
C234 C232 1.345 . S
C234 C246 1.334 . S
C234 H252 0.928 . S
H235 C239 0.932 . S
H236 C240 0.928 . S
H237 C241 0.932 . S
H238 C242 0.928 . S
C239 C230 1.332 . S
C239 H235 0.932 . S
C239 C240 1.345 . S
C240 H236 0.928 . S
C240 C239 1.345 . S
C240 C243 1.334 . S
C241 C233 1.332 1_565 S
C241 H237 0.932 . S
C241 C242 1.345 . S
C242 H238 0.928 . S
C242 C241 1.345 . S
C242 C246 1.334 1_565 S
C243 C231 1.334 1_545 S
C243 C240 1.334 . S
C243 C244 1.487 . S
C244 C243 1.487 . S
C244 C245 1.185 . S
C245 C244 1.185 . S
C245 C248 1.482 . S
C246 C234 1.334 . S
C246 C242 1.334 1_545 S
C246 C247 1.487 . S
C247 C246 1.487 . S
C247 C248 1.185 . S
C248 C245 1.482 . S
C248 C247 1.185 . S
H249 C229 0.932 . S
H250 C231 0.928 . S
H251 C232 0.932 . S
H252 C234 0.928 . S
C62 C23 1.269 . S
C65 C34 1.341 . S
C86 C22 1.397 . S
C89 C60 1.441 . S
C110 C21 1.816 . S
C113 C46 1.825 . S
C134 C24 1.481 . S
C137 C48 1.544 1_565 S
C158 C27 1.269 . S
C161 C33 1.341 . S
C182 C26 1.397 . S
C185 C59 1.443 . S
C209 C45 1.836 1_655 S
C206 C25 1.816 . S
C230 C28 1.481 . S
C233 C47 1.535 . S
