# Generated by pormake.
# Topology nia, (6,6)-cn, num edge types: 1
# Building blocks:
#     Node 0, Type 0, BuildingBlock: CIFDUS_clean_sbu_1, # of connection points: 6
#     Node 1, Type 0, BuildingBlock: CIFDUS_clean_sbu_1, # of connection points: 6
#     Node 2, Type 1, BuildingBlock: MIDCAF_clean_sbu_0, # of connection points: 6
#     Node 3, Type 1, BuildingBlock: MIDCAF_clean_sbu_0, # of connection points: 6
#     Edge 4, Type (0, 1), BuildingBlock: AJUNOK_clean_linker_0, # of connection points: 2
#     Edge 5, Type (0, 1), BuildingBlock: AJUNOK_clean_linker_0, # of connection points: 2
#     Edge 6, Type (0, 1), BuildingBlock: AJUNOK_clean_linker_0, # of connection points: 2
#     Edge 7, Type (0, 1), BuildingBlock: AJUNOK_clean_linker_0, # of connection points: 2
#     Edge 8, Type (0, 1), BuildingBlock: AJUNOK_clean_linker_0, # of connection points: 2
#     Edge 9, Type (0, 1), BuildingBlock: AJUNOK_clean_linker_0, # of connection points: 2
#     Edge 10, Type (0, 1), BuildingBlock: AJUNOK_clean_linker_0, # of connection points: 2
#     Edge 11, Type (0, 1), BuildingBlock: AJUNOK_clean_linker_0, # of connection points: 2
#     Edge 12, Type (0, 1), BuildingBlock: AJUNOK_clean_linker_0, # of connection points: 2
#     Edge 13, Type (0, 1), BuildingBlock: AJUNOK_clean_linker_0, # of connection points: 2
#     Edge 14, Type (0, 1), BuildingBlock: AJUNOK_clean_linker_0, # of connection points: 2
#     Edge 15, Type (0, 1), BuildingBlock: AJUNOK_clean_linker_0, # of connection points: 2
# Relax obj value: 0.123
# Max RMSD: 0.237
# Mean RMSD: 0.158
data_MOF--net-nia--node1-CIFDUS_clean_sbu_1--node2-MIDCAF_clean_sbu_0--edge1-AJUNOK_clean_linker_0
_symmetry_space_group_name_H-M    P1
_symmetry_Int_Tables_number       1
_symmetry_cell_setting            triclinic
loop_
_symmetry_equiv_pos_as_xyz
'x, y, z'
_cell_length_a     17.776884
_cell_length_b     17.892951
_cell_length_c     25.393372
_cell_angle_alpha  88.775083
_cell_angle_beta   89.559312
_cell_angle_gamma 128.10187
loop_
_atom_site_label
_atom_site_type_symbol
_atom_site_fract_x
_atom_site_fract_y
_atom_site_fract_z
_atom_type_partial_charge
O0 O 0.95213 0.89144 0.97159 0.0
Mn1 Mn 0.98299 0.99658 0.02535 0.0
O2 O 0.80152 0.77221 0.98755 0.0
Mn3 Mn 0.83074 0.8016 0.05678 0.0
O4 O 0.01369 0.10309 0.07856 0.0
O5 O 0.10846 0.07915 0.97855 0.0
Mn6 Mn 0.12795 0.18688 0.99241 0.0
O7 O 0.91603 0.03375 0.97575 0.0
O8 O 0.16275 0.22174 0.06019 0.0
O9 O 0.04478 0.9552 0.07642 0.0
O10 O 0.92417 0.79891 0.08613 0.0
O11 O 0.22691 0.23015 0.95056 0.0
O12 O 0.03352 0.18949 0.96397 0.0
C13 C 0.7815 0.8589 0.10096 0.0
C14 C 0.87369 0.81403 0.95719 0.0
C15 C 0.09186 0.18288 0.09097 0.0
C16 C 0.18821 0.1405 0.95076 0.0
C17 C 0.94791 0.1161 0.95729 0.0
C18 C 0.00885 0.87188 0.09609 0.0
O19 O 0.85991 0.91285 0.0717 0.0
O20 O 0.73385 0.7676 0.09971 0.0
O21 O 0.0975 0.03869 0.58165 0.0
Mn22 Mn 0.00057 0.01053 0.52258 0.0
O23 O 0.24279 0.15781 0.55018 0.0
Mn24 Mn 0.20238 0.13706 0.48288 0.0
O25 O 0.89975 0.97823 0.46597 0.0
O26 O 0.90123 0.89125 0.56647 0.0
Mn27 Mn 0.80275 0.89151 0.57493 0.0
O28 O 0.97405 0.09347 0.56455 0.0
O29 O 0.75702 0.88782 0.50905 0.0
O30 O 0.02867 0.93048 0.47951 0.0
O31 O 0.18042 0.03609 0.44928 0.0
O32 O 0.76523 0.78273 0.60881 0.0
O33 O 0.84295 0.993 0.61531 0.0
C34 C 0.15634 0.20528 0.44608 0.0
C35 C 0.18732 0.10333 0.58769 0.0
C36 C 0.80829 0.92917 0.46732 0.0
C37 C 0.84989 0.81236 0.59453 0.0
C38 C 0.91634 0.07629 0.60251 0.0
C39 C 0.10086 0.95321 0.45116 0.0
O40 O 0.09887 0.12955 0.4766 0.0
O41 O 0.24532 0.23947 0.44277 0.0
Zn42 Zn 0.3206 0.72189 0.18051 0.0
Zn43 Zn 0.29853 0.67724 0.37063 0.0
Zn44 Zn 0.30039 0.68761 0.27541 0.0
C45 C 0.48465 0.77017 0.34989 0.0
C46 C 0.17883 0.49349 0.34372 0.0
O47 O 0.22698 0.75115 0.25253 0.0
O48 O 0.25887 0.77862 0.16694 0.0
C49 C 0.50253 0.82669 0.20714 0.0
O50 O 0.4511 0.76916 0.30474 0.0
O51 O 0.42857 0.7256 0.38896 0.0
O52 O 0.19551 0.54245 0.38314 0.0
O53 O 0.21832 0.53502 0.29854 0.0
O54 O 0.45645 0.81163 0.16616 0.0
O55 O 0.45698 0.7843 0.25112 0.0
O56 O 0.22407 0.54219 0.24186 0.0
O57 O 0.25324 0.59014 0.15856 0.0
C58 C 0.21463 0.52288 0.19257 0.0
O59 O 0.22175 0.73804 0.30777 0.0
O60 O 0.25724 0.74957 0.39187 0.0
C61 C 0.22193 0.78344 0.20776 0.0
C62 C 0.21464 0.75722 0.35541 0.0
Zn63 Zn 0.67169 0.31831 0.85548 0.0
Zn64 Zn 0.66339 0.30111 0.68449 0.0
Zn65 Zn 0.68764 0.32094 0.76982 0.0
C66 C 0.75516 0.48486 0.6878 0.0
C67 C 0.48925 0.18762 0.70643 0.0
O68 O 0.74453 0.24709 0.8026 0.0
O69 O 0.78533 0.33021 0.87328 0.0
C70 C 0.74855 0.49756 0.83348 0.0
O71 O 0.77638 0.46707 0.73235 0.0
O72 O 0.6827 0.41758 0.66442 0.0
O73 O 0.53472 0.18012 0.67148 0.0
O74 O 0.53491 0.24203 0.7455 0.0
O75 O 0.67966 0.43277 0.86254 0.0
O76 O 0.77477 0.47357 0.79401 0.0
O77 O 0.53465 0.24133 0.80181 0.0
O78 O 0.54842 0.19787 0.88029 0.0
C79 C 0.4955 0.19394 0.84591 0.0
O80 O 0.75919 0.25755 0.74268 0.0
O81 O 0.77547 0.31402 0.66254 0.0
C82 C 0.78274 0.2687 0.84825 0.0
C83 C 0.79564 0.27592 0.69552 0.0
C84 C 0.01806 0.76396 0.15521 0.0
C85 C 0.06269 0.85652 0.13373 0.0
C86 C 0.06698 0.74327 0.18743 0.0
C87 C 0.16273 0.81385 0.19942 0.0
H88 H 0.94565 0.70519 0.14524 0.0
H89 H 0.03235 0.6697 0.19875 0.0
S90 S 0.30809 0.07006 0.16271 0.0
N91 N 0.20479 0.02215 0.1343 0.0
N92 N 0.29742 0.98172 0.19377 0.0
C93 C 0.20594 0.90788 0.18245 0.0
C94 C 0.15591 0.92958 0.14982 0.0
C95 C 0.2403 0.04148 0.65342 0.0
C96 C 0.23445 0.11333 0.63713 0.0
C97 C 0.31979 0.06397 0.68113 0.0
C98 C 0.39431 0.15844 0.69355 0.0
H99 H 0.18952 0.9701 0.6394 0.0
H100 H 0.32679 0.00879 0.68899 0.0
S101 S 0.40737 0.36983 0.66309 0.0
N102 N 0.30372 0.2798 0.64012 0.0
N103 N 0.45476 0.32285 0.68953 0.0
C104 C 0.38489 0.22905 0.68111 0.0
C105 C 0.30366 0.20594 0.65414 0.0
C106 C 0.12301 0.26701 0.17532 0.0
C107 C 0.09177 0.25059 0.12325 0.0
C108 C 0.15624 0.35241 0.19949 0.0
C109 C 0.15993 0.42432 0.17272 0.0
H110 H 0.12926 0.21746 0.19588 0.0
H111 H 0.1869 0.36527 0.23726 0.0
S112 S 0.08784 0.41609 0.03496 0.0
N113 N 0.06856 0.31417 0.04536 0.0
N114 N 0.12454 0.47006 0.09143 0.0
C115 C 0.12331 0.40555 0.12163 0.0
C116 C 0.09103 0.32001 0.09686 0.0
C117 C 0.8567 0.16678 0.59556 0.0
C118 C 0.9146 0.15145 0.62236 0.0
C119 C 0.82094 0.20806 0.62023 0.0
C120 C 0.84198 0.23698 0.67293 0.0
H121 H 0.83217 0.13938 0.55654 0.0
H122 H 0.77242 0.21328 0.59805 0.0
S123 S 0.00761 0.22956 0.75639 0.0
N124 N 0.00042 0.17606 0.7022 0.0
N125 N 0.93931 0.26226 0.74763 0.0
C126 C 0.90653 0.22916 0.69891 0.0
C127 C 0.94136 0.18434 0.67382 0.0
C128 C 0.71694 0.84216 0.18998 0.0
C129 C 0.75201 0.89426 0.14156 0.0
C130 C 0.64393 0.83292 0.21863 0.0
C131 C 0.606 0.87734 0.20002 0.0
H132 H 0.7359 0.79721 0.20176 0.0
H133 H 0.60765 0.77943 0.25011 0.0
S134 S 0.69776 0.04889 0.08752 0.0
N135 N 0.76142 0.01021 0.0844 0.0
N136 N 0.62744 0.99696 0.14041 0.0
C137 C 0.65499 0.94547 0.15853 0.0
C138 C 0.7276 0.95298 0.12843 0.0
C139 C 0.89557 0.74984 0.66331 0.0
C140 C 0.87807 0.75358 0.60963 0.0
C141 C 0.86493 0.66399 0.68838 0.0
C142 C 0.81406 0.57968 0.66052 0.0
H143 H 0.9225 0.81054 0.6874 0.0
H144 H 0.87336 0.66205 0.73034 0.0
S145 S 0.77451 0.55872 0.51626 0.0
N146 N 0.8251 0.67097 0.5276 0.0
N147 N 0.76921 0.51049 0.57368 0.0
C148 C 0.80995 0.58638 0.60522 0.0
C149 C 0.84175 0.67345 0.57996 0.0
C150 C 0.13961 0.91099 0.36862 0.0
C151 C 0.09669 0.88298 0.4196 0.0
C152 C 0.16879 0.86294 0.34408 0.0
C153 C 0.15598 0.78599 0.37018 0.0
H154 H 0.15833 0.97549 0.34962 0.0
H155 H 0.20988 0.89202 0.30738 0.0
S156 S 0.0329 0.67531 0.49946 0.0
N157 N 0.03225 0.76681 0.49186 0.0
N158 N 0.0845 0.67449 0.44539 0.0
C159 C 0.10312 0.75077 0.41818 0.0
C160 C 0.07387 0.79982 0.44311 0.0
C161 C 0.27274 0.07206 0.93306 0.0
C162 C 0.23228 0.11395 0.91414 0.0
C163 C 0.35224 0.08913 0.90662 0.0
C164 C 0.39494 0.15059 0.86145 0.0
H165 H 0.2499 0.03485 0.97109 0.0
H166 H 0.38593 0.06144 0.9246 0.0
S167 S 0.30551 0.26749 0.79448 0.0
N168 N 0.22873 0.20491 0.84372 0.0
N169 N 0.3839 0.24678 0.79795 0.0
C170 C 0.34838 0.18469 0.83984 0.0
C171 C 0.26515 0.16331 0.8652 0.0
C172 C 0.18313 0.29127 0.36358 0.0
C173 C 0.12663 0.24752 0.40994 0.0
C174 C 0.19303 0.36676 0.33873 0.0
C175 C 0.13871 0.39447 0.35521 0.0
H176 H 0.23096 0.27655 0.35064 0.0
H177 H 0.2533 0.41157 0.31158 0.0
S178 S 0.96178 0.28714 0.46647 0.0
N179 N 0.00554 0.22807 0.46768 0.0
N180 N 0.01457 0.36306 0.41555 0.0
C181 C 0.07052 0.34149 0.39656 0.0
C182 C 0.06533 0.26825 0.4247 0.0
C183 C 0.86081 0.11431 0.87873 0.0
C184 C 0.88393 0.13217 0.93228 0.0
C185 C 0.8229 0.15391 0.85166 0.0
C186 C 0.81244 0.2168 0.87658 0.0
H187 H 0.87574 0.07299 0.8572 0.0
H188 H 0.80435 0.13733 0.81086 0.0
S189 S 0.84156 0.26638 0.0198 0.0
N190 N 0.87619 0.20048 0.01126 0.0
N191 N 0.81059 0.2782 0.96118 0.0
C192 C 0.82765 0.22748 0.93139 0.0
C193 C 0.86272 0.18498 0.95885 0.0
C194 C 0.7178 0.95916 0.40909 0.0
C195 C 0.75569 0.91078 0.41873 0.0
C196 C 0.63537 0.91814 0.37923 0.0
C197 C 0.5879 0.82714 0.3589 0.0
H198 H 0.74605 0.02421 0.42916 0.0
H199 H 0.60288 0.95315 0.37699 0.0
S200 S 0.66618 0.67753 0.36775 0.0
N201 N 0.74702 0.77327 0.40042 0.0
N202 N 0.59033 0.6946 0.34587 0.0
C203 C 0.63037 0.78241 0.36415 0.0
C204 C 0.71506 0.82489 0.39368 0.0
C205 C 0.84714 0.74875 0.86656 0.0
C206 C 0.87354 0.75246 0.91917 0.0
C207 C 0.81505 0.66966 0.83568 0.0
C208 C 0.80987 0.59293 0.85645 0.0
H209 H 0.84341 0.80307 0.85077 0.0
H210 H 0.78606 0.66484 0.79749 0.0
S211 S 0.86882 0.56804 0.99236 0.0
N212 N 0.89181 0.67264 0.99036 0.0
N213 N 0.83457 0.52668 0.93266 0.0
C214 C 0.84119 0.59896 0.90805 0.0
C215 C 0.87244 0.67809 0.9393 0.0
loop_
_geom_bond_atom_site_label_1
_geom_bond_atom_site_label_2
_geom_bond_distance
_geom_bond_site_symmetry_2
_ccdc_geom_bond_type
O0 Mn1 2.163 1_666 S
O0 C14 1.244 . S
Mn1 O0 2.163 1_444 S
Mn1 O4 2.160 . S
Mn1 O5 2.221 1_554 S
Mn1 O7 2.163 1_454 S
Mn1 O9 2.160 1_545 S
Mn1 O19 2.221 1_445 S
O2 Mn3 2.087 1_556 S
O2 C14 1.256 . S
Mn3 O2 2.087 1_554 S
Mn3 O10 2.089 . S
Mn3 O19 2.290 . S
Mn3 O20 2.251 . S
O4 Mn1 2.160 . S
O4 C15 1.239 . S
O5 Mn1 2.221 1_556 S
O5 Mn6 2.290 . S
O5 C16 1.278 . S
Mn6 O5 2.290 . S
Mn6 O8 2.089 1_556 S
Mn6 O11 2.251 . S
Mn6 O12 2.087 . S
O7 Mn1 2.163 1_656 S
O7 C17 1.244 . S
O8 Mn6 2.089 1_554 S
O8 C15 1.256 . S
O9 Mn1 2.160 1_565 S
O9 C18 1.239 . S
O10 Mn3 2.089 . S
O10 C18 1.256 1_655 S
O11 Mn6 2.251 . S
O11 C16 1.241 . S
O12 Mn6 2.087 . S
O12 C17 1.256 1_455 S
C13 O19 1.278 . S
C13 O20 1.241 . S
C14 O0 1.244 . S
C14 O2 1.256 . S
C15 O4 1.239 . S
C15 O8 1.256 . S
C16 O5 1.278 . S
C16 O11 1.241 . S
C17 O7 1.244 . S
C17 O12 1.256 1_655 S
C18 O9 1.239 . S
C18 O10 1.256 1_455 S
O19 Mn1 2.221 1_665 S
O19 Mn3 2.290 . S
O19 C13 1.278 . S
O20 Mn3 2.251 . S
O20 C13 1.241 . S
O21 Mn22 2.170 1_545 S
O21 C35 1.244 . S
Mn22 O21 2.170 1_565 S
Mn22 O25 2.153 1_455 S
Mn22 O26 2.220 1_455 S
Mn22 O28 2.156 1_465 S
Mn22 O30 2.166 . S
Mn22 O40 2.223 1_565 S
O23 Mn24 2.087 . S
O23 C35 1.256 . S
Mn24 O23 2.087 . S
Mn24 O31 2.089 . S
Mn24 O40 2.290 . S
Mn24 O41 2.251 . S
O25 Mn22 2.153 1_655 S
O25 C36 1.239 . S
O26 Mn22 2.220 1_655 S
O26 Mn27 2.290 . S
O26 C37 1.278 . S
Mn27 O26 2.290 . S
Mn27 O29 2.089 . S
Mn27 O32 2.251 . S
Mn27 O33 2.087 . S
O28 Mn22 2.156 1_645 S
O28 C38 1.244 . S
O29 Mn27 2.089 . S
O29 C36 1.256 . S
O30 Mn22 2.166 . S
O30 C39 1.239 . S
O31 Mn24 2.089 . S
O31 C39 1.256 1_545 S
O32 Mn27 2.251 . S
O32 C37 1.241 . S
O33 Mn27 2.087 . S
O33 C38 1.256 1_565 S
C34 O40 1.278 . S
C34 O41 1.241 . S
C35 O21 1.244 . S
C35 O23 1.256 . S
C36 O25 1.239 . S
C36 O29 1.256 . S
C37 O26 1.278 . S
C37 O32 1.241 . S
C38 O28 1.244 . S
C38 O33 1.256 1_545 S
C39 O30 1.239 . S
C39 O31 1.256 1_565 S
O40 Mn22 2.223 1_545 S
O40 Mn24 2.290 . S
O40 C34 1.278 . S
O41 Mn24 2.251 . S
O41 C34 1.241 . S
Zn42 O48 1.920 . S
Zn42 O54 1.898 . S
Zn42 O57 1.905 . S
Zn43 O51 1.905 . S
Zn43 O52 1.898 . S
Zn43 O60 1.920 . S
Zn44 O47 2.080 . S
Zn44 O50 2.114 . S
Zn44 O53 2.120 . S
Zn44 O55 2.120 . S
Zn44 O56 2.114 . S
Zn44 O59 2.080 . S
C45 O50 1.166 . S
C45 O51 1.182 . S
C46 O52 1.167 . S
C46 O53 1.299 . S
O47 Zn44 2.080 . S
O47 C61 1.305 . S
O48 Zn42 1.920 . S
O48 C61 1.234 . S
C49 O54 1.167 . S
C49 O55 1.299 . S
O50 Zn44 2.114 . S
O50 C45 1.166 . S
O51 Zn43 1.905 . S
O51 C45 1.182 . S
O52 Zn43 1.898 . S
O52 C46 1.167 . S
O53 Zn44 2.120 . S
O53 C46 1.299 . S
O54 Zn42 1.898 . S
O54 C49 1.167 . S
O55 Zn44 2.120 . S
O55 C49 1.299 . S
O56 Zn44 2.114 . S
O56 C58 1.166 . S
O57 Zn42 1.905 . S
O57 C58 1.182 . S
C58 O56 1.166 . S
C58 O57 1.182 . S
O59 Zn44 2.080 . S
O59 C62 1.305 . S
O60 Zn43 1.920 . S
O60 C62 1.234 . S
C61 O47 1.305 . S
C61 O48 1.234 . S
C62 O59 1.305 . S
C62 O60 1.234 . S
Zn63 O69 1.920 . S
Zn63 O75 1.898 . S
Zn63 O78 1.905 . S
Zn64 O72 1.905 . S
Zn64 O73 1.898 . S
Zn64 O81 1.920 . S
Zn65 O68 2.080 . S
Zn65 O71 2.114 . S
Zn65 O74 2.120 . S
Zn65 O76 2.120 . S
Zn65 O77 2.114 . S
Zn65 O80 2.080 . S
C66 O71 1.166 . S
C66 O72 1.182 . S
C67 O73 1.167 . S
C67 O74 1.299 . S
O68 Zn65 2.080 . S
O68 C82 1.305 . S
O69 Zn63 1.920 . S
O69 C82 1.234 . S
C70 O75 1.167 . S
C70 O76 1.299 . S
O71 Zn65 2.114 . S
O71 C66 1.166 . S
O72 Zn64 1.905 . S
O72 C66 1.182 . S
O73 Zn64 1.898 . S
O73 C67 1.167 . S
O74 Zn65 2.120 . S
O74 C67 1.299 . S
O75 Zn63 1.898 . S
O75 C70 1.167 . S
O76 Zn65 2.120 . S
O76 C70 1.299 . S
O77 Zn65 2.114 . S
O77 C79 1.166 . S
O78 Zn63 1.905 . S
O78 C79 1.182 . S
C79 O77 1.166 . S
C79 O78 1.182 . S
O80 Zn65 2.080 . S
O80 C83 1.305 . S
O81 Zn64 1.920 . S
O81 C83 1.234 . S
C82 O68 1.305 . S
C82 O69 1.234 . S
C83 O80 1.305 . S
C83 O81 1.234 . S
C84 C85 1.369 . S
C84 C86 1.419 . S
C84 H88 0.930 . S
C85 C84 1.369 . S
C85 C94 1.429 . S
C86 C84 1.419 . S
C86 C87 1.363 . S
C86 H89 0.929 . S
C87 C86 1.363 . S
C87 C93 1.428 . S
H88 C84 0.930 . S
H89 C86 0.929 . S
S90 N91 1.613 . S
S90 N92 1.610 . S
N91 S90 1.613 . S
N91 C94 1.350 . S
N92 S90 1.610 . S
N92 C93 1.351 . S
C93 C87 1.428 . S
C93 N92 1.351 . S
C93 C94 1.434 . S
C94 C85 1.429 . S
C94 N91 1.350 . S
C94 C93 1.434 . S
C95 C96 1.369 . S
C95 C97 1.419 . S
C95 H99 0.930 1_545 S
C96 C95 1.369 . S
C96 C105 1.429 . S
C97 C95 1.419 . S
C97 C98 1.363 . S
C97 H100 0.929 . S
C98 C97 1.363 . S
C98 C104 1.428 . S
H99 C95 0.930 1_565 S
H100 C97 0.929 . S
S101 N102 1.613 . S
S101 N103 1.610 . S
N102 S101 1.613 . S
N102 C105 1.350 . S
N103 S101 1.610 . S
N103 C104 1.351 . S
C104 C98 1.428 . S
C104 N103 1.351 . S
C104 C105 1.434 . S
C105 C96 1.429 . S
C105 N102 1.350 . S
C105 C104 1.434 . S
C106 C107 1.369 . S
C106 C108 1.419 . S
C106 H110 0.930 . S
C107 C106 1.369 . S
C107 C116 1.429 . S
C108 C106 1.419 . S
C108 C109 1.363 . S
C108 H111 0.929 . S
C109 C108 1.363 . S
C109 C115 1.428 . S
H110 C106 0.930 . S
H111 C108 0.929 . S
S112 N113 1.613 . S
S112 N114 1.610 . S
N113 S112 1.613 . S
N113 C116 1.350 . S
N114 S112 1.610 . S
N114 C115 1.351 . S
C115 C109 1.428 . S
C115 N114 1.351 . S
C115 C116 1.434 . S
C116 C107 1.429 . S
C116 N113 1.350 . S
C116 C115 1.434 . S
C117 C118 1.369 . S
C117 C119 1.419 . S
C117 H121 0.930 . S
C118 C117 1.369 . S
C118 C127 1.429 . S
C119 C117 1.419 . S
C119 C120 1.363 . S
C119 H122 0.929 . S
C120 C119 1.363 . S
C120 C126 1.428 . S
H121 C117 0.930 . S
H122 C119 0.929 . S
S123 N124 1.613 1_455 S
S123 N125 1.610 1_455 S
N124 S123 1.613 1_655 S
N124 C127 1.350 . S
N125 S123 1.610 1_655 S
N125 C126 1.351 . S
C126 C120 1.428 . S
C126 N125 1.351 . S
C126 C127 1.434 . S
C127 C118 1.429 . S
C127 N124 1.350 . S
C127 C126 1.434 . S
C128 C129 1.369 . S
C128 C130 1.419 . S
C128 H132 0.930 . S
C129 C128 1.369 . S
C129 C138 1.429 . S
C130 C128 1.419 . S
C130 C131 1.363 . S
C130 H133 0.929 . S
C131 C130 1.363 . S
C131 C137 1.428 . S
H132 C128 0.930 . S
H133 C130 0.929 . S
S134 N135 1.613 . S
S134 N136 1.610 . S
N135 S134 1.613 . S
N135 C138 1.350 1_545 S
N136 S134 1.610 . S
N136 C137 1.351 1_545 S
C137 C131 1.428 . S
C137 N136 1.351 1_565 S
C137 C138 1.434 . S
C138 C129 1.429 . S
C138 N135 1.350 1_565 S
C138 C137 1.434 . S
C139 C140 1.369 . S
C139 C141 1.419 . S
C139 H143 0.930 . S
C140 C139 1.369 . S
C140 C149 1.429 . S
C141 C139 1.419 . S
C141 C142 1.363 . S
C141 H144 0.929 . S
C142 C141 1.363 . S
C142 C148 1.428 . S
H143 C139 0.930 . S
H144 C141 0.929 . S
S145 N146 1.613 . S
S145 N147 1.610 . S
N146 S145 1.613 . S
N146 C149 1.350 . S
N147 S145 1.610 . S
N147 C148 1.351 . S
C148 C142 1.428 . S
C148 N147 1.351 . S
C148 C149 1.434 . S
C149 C140 1.429 . S
C149 N146 1.350 . S
C149 C148 1.434 . S
C150 C151 1.369 . S
C150 C152 1.419 . S
C150 H154 0.930 1_565 S
C151 C150 1.369 . S
C151 C160 1.429 . S
C152 C150 1.419 . S
C152 C153 1.363 . S
C152 H155 0.929 . S
C153 C152 1.363 . S
C153 C159 1.428 . S
H154 C150 0.930 1_545 S
H155 C152 0.929 . S
S156 N157 1.613 . S
S156 N158 1.610 . S
N157 S156 1.613 . S
N157 C160 1.350 . S
N158 S156 1.610 . S
N158 C159 1.351 . S
C159 C153 1.428 . S
C159 N158 1.351 . S
C159 C160 1.434 . S
C160 C151 1.429 . S
C160 N157 1.350 . S
C160 C159 1.434 . S
C161 C162 1.369 . S
C161 C163 1.419 . S
C161 H165 0.930 . S
C162 C161 1.369 . S
C162 C171 1.429 . S
C163 C161 1.419 . S
C163 C164 1.363 . S
C163 H166 0.929 . S
C164 C163 1.363 . S
C164 C170 1.428 . S
H165 C161 0.930 . S
H166 C163 0.929 . S
S167 N168 1.613 . S
S167 N169 1.610 . S
N168 S167 1.613 . S
N168 C171 1.350 . S
N169 S167 1.610 . S
N169 C170 1.351 . S
C170 C164 1.428 . S
C170 N169 1.351 . S
C170 C171 1.434 . S
C171 C162 1.429 . S
C171 N168 1.350 . S
C171 C170 1.434 . S
C172 C173 1.369 . S
C172 C174 1.419 . S
C172 H176 0.930 . S
C173 C172 1.369 . S
C173 C182 1.429 . S
C174 C172 1.419 . S
C174 C175 1.363 . S
C174 H177 0.929 . S
C175 C174 1.363 . S
C175 C181 1.428 . S
H176 C172 0.930 . S
H177 C174 0.929 . S
S178 N179 1.613 . S
S178 N180 1.610 . S
N179 S178 1.613 . S
N179 C182 1.350 1_655 S
N180 S178 1.610 . S
N180 C181 1.351 1_655 S
C181 C175 1.428 . S
C181 N180 1.351 1_455 S
C181 C182 1.434 . S
C182 C173 1.429 . S
C182 N179 1.350 1_455 S
C182 C181 1.434 . S
C183 C184 1.369 . S
C183 C185 1.419 . S
C183 H187 0.930 . S
C184 C183 1.369 . S
C184 C193 1.429 . S
C185 C183 1.419 . S
C185 C186 1.363 . S
C185 H188 0.929 . S
C186 C185 1.363 . S
C186 C192 1.428 . S
H187 C183 0.930 . S
H188 C185 0.929 . S
S189 N190 1.613 . S
S189 N191 1.610 1_554 S
N190 S189 1.613 . S
N190 C193 1.350 1_554 S
N191 S189 1.610 1_556 S
N191 C192 1.351 . S
C192 C186 1.428 . S
C192 N191 1.351 . S
C192 C193 1.434 . S
C193 C184 1.429 . S
C193 N190 1.350 1_556 S
C193 C192 1.434 . S
C194 C195 1.369 . S
C194 C196 1.419 . S
C194 H198 0.930 . S
C195 C194 1.369 . S
C195 C204 1.429 . S
C196 C194 1.419 . S
C196 C197 1.363 . S
C196 H199 0.929 . S
C197 C196 1.363 . S
C197 C203 1.428 . S
H198 C194 0.930 . S
H199 C196 0.929 . S
S200 N201 1.613 . S
S200 N202 1.610 . S
N201 S200 1.613 . S
N201 C204 1.350 . S
N202 S200 1.610 . S
N202 C203 1.351 . S
C203 C197 1.428 . S
C203 N202 1.351 . S
C203 C204 1.434 . S
C204 C195 1.429 . S
C204 N201 1.350 . S
C204 C203 1.434 . S
C205 C206 1.369 . S
C205 C207 1.419 . S
C205 H209 0.930 . S
C206 C205 1.369 . S
C206 C215 1.429 . S
C207 C205 1.419 . S
C207 C208 1.363 . S
C207 H210 0.929 . S
C208 C207 1.363 . S
C208 C214 1.428 . S
H209 C205 0.930 . S
H210 C207 0.929 . S
S211 N212 1.613 1_554 S
S211 N213 1.610 1_554 S
N212 S211 1.613 1_556 S
N212 C215 1.350 . S
N213 S211 1.610 1_556 S
N213 C214 1.351 . S
C214 C208 1.428 . S
C214 N213 1.351 . S
C214 C215 1.434 . S
C215 C206 1.429 . S
C215 N212 1.350 . S
C215 C214 1.434 . S
C85 C18 1.395 . S
C87 C61 1.318 . S
C96 C35 1.542 . S
C98 C67 1.401 . S
C107 C15 1.371 . S
C109 C58 1.294 . S
C118 C38 1.585 . S
C120 C83 1.435 . S
C129 C13 1.456 . S
C131 C49 1.393 . S
C142 C66 1.430 . S
C140 C37 1.262 . S
C151 C39 1.395 . S
C153 C62 1.310 . S
C164 C79 1.437 . S
C162 C16 1.260 . S
C175 C46 1.395 . S
C173 C34 1.455 . S
C186 C82 1.426 . S
C184 C17 1.591 . S
C197 C45 1.305 . S
C195 C36 1.379 . S
C208 C70 1.402 . S
C206 C14 1.542 . S
