# Generated by pormake.
# Topology scu, (8,4)-cn, num edge types: 1
# Building blocks:
#     Node 0, Type 0, BuildingBlock: TAGTUT_clean_sbu_3, # of connection points: 8
#     Node 1, Type 1, BuildingBlock: ESEHIV_clean_sbu_0, # of connection points: 4
#     Node 2, Type 1, BuildingBlock: ESEHIV_clean_sbu_0, # of connection points: 4
#     Edge 3, Type (0, 1), None
#     Edge 4, Type (0, 1), None
#     Edge 5, Type (0, 1), None
#     Edge 6, Type (0, 1), None
#     Edge 7, Type (0, 1), None
#     Edge 8, Type (0, 1), None
#     Edge 9, Type (0, 1), None
#     Edge 10, Type (0, 1), None
# Relax obj value: 0.029
# Max RMSD: 0.121
# Mean RMSD: 0.111
data_MOF--net-scu--node1-TAGTUT_clean_sbu_3--node2-ESEHIV_clean_sbu_0--edge1-none
_symmetry_space_group_name_H-M    P1
_symmetry_Int_Tables_number       1
_symmetry_cell_setting            triclinic
loop_
_symmetry_equiv_pos_as_xyz
'x, y, z'
_cell_length_a     14.782417
_cell_length_b     11.676485
_cell_length_c     10.376409
_cell_angle_alpha  99.663041
_cell_angle_beta   99.339101
_cell_angle_gamma 89.292553
loop_
_atom_site_label
_atom_site_type_symbol
_atom_site_fract_x
_atom_site_fract_y
_atom_site_fract_z
_atom_type_partial_charge
C0 C 0.0361 0.83327 0.18796 0.0
C1 C 0.68361 0.95 0.09313 0.0
C2 C 0.74647 0.01648 0.72292 0.0
Mg3 Mg 0.21245 0.91458 0.07651 0.0
Mg4 Mg 0.22762 0.17083 0.99159 0.0
O5 O 0.15458 0.04268 0.98589 0.0
Mg6 Mg 1.0238 0.04169 0.0115 0.0
O7 O 0.894 0.02341 0.03946 0.0
Mg8 Mg 0.86511 0.86116 0.94189 0.0
Mg9 Mg 0.80311 0.1336 0.00762 0.0
C10 C 0.04654 0.24447 0.82518 0.0
O11 O 1.02309 0.21483 0.1619 0.0
O12 O 0.3291 0.90884 0.94482 0.0
O13 O 0.87797 0.28371 0.12592 0.0
O14 O 0.29817 0.04762 0.25294 0.0
O15 O 0.32147 0.08298 0.88009 0.0
O16 O 0.28862 0.22281 0.19137 0.0
O17 O 0.99761 0.87492 0.85338 0.0
O18 O 0.13156 0.79156 0.90557 0.0
C19 C 0.05247 0.79104 0.83426 0.0
C20 C 0.35102 0.97924 0.87143 0.0
O21 O 0.99726 0.16398 0.85347 0.0
O22 O 0.73294 0.86752 0.04335 0.0
O23 O 0.12973 0.26738 0.88058 0.0
O24 O 0.77862 0.9242 0.76277 0.0
O25 O 0.70035 0.05702 0.091 0.0
O26 O 0.75512 0.11526 0.79831 0.0
O27 O 0.07702 0.92441 0.17058 0.0
O28 O 0.95753 0.8009 0.11894 0.0
C29 C 0.31668 0.15717 0.27559 0.0
C30 C 0.96186 0.29333 0.18332 0.0
Cu31 Cu 0.99401 0.55805 0.49535 0.0
N32 N 0.99764 0.43113 0.58723 0.0
N33 N 1.01095 0.30532 0.72923 0.0
C34 C 0.05443 0.38683 0.68132 0.0
C35 C 0.92509 0.29606 0.66218 0.0
C36 C 0.9171 0.37395 0.57641 0.0
O37 O 0.93003 0.46631 0.33234 0.0
C38 C 0.03438 0.69612 0.72048 0.0
O39 O 0.10289 0.6259 0.70347 0.0
H40 H 0.12487 0.41515 0.71659 0.0
H41 H 0.85464 0.39158 0.51316 0.0
N42 N 0.07613 0.63611 0.41552 0.0
N43 N 0.07459 0.76795 0.27972 0.0
C44 C 0.0341 0.67372 0.30539 0.0
C45 C 0.14898 0.70924 0.4603 0.0
C46 C 0.14902 0.78967 0.37495 0.0
C47 C 0.98836 0.39395 0.28696 0.0
O48 O 0.07376 0.39993 0.34796 0.0
H49 H 0.96714 0.64206 0.25447 0.0
H50 H 0.19314 0.71314 0.55482 0.0
O51 O 0.96314 0.68484 0.63026 0.0
H52 H 0.87147 0.23945 0.67664 0.0
H53 H 0.19476 0.8641 0.38938 0.0
Cu54 Cu 0.50336 0.0316 0.47591 0.0
N55 N 0.45239 0.94624 0.58264 0.0
N56 N 0.39762 0.94136 0.77005 0.0
C57 C 0.41147 0.00545 0.67847 0.0
C58 C 0.43113 0.83556 0.73042 0.0
C59 C 0.46678 0.83952 0.61504 0.0
O60 O 0.43331 0.17378 0.47254 0.0
C61 C 0.68229 0.00246 0.59786 0.0
O62 O 0.66955 0.89836 0.52612 0.0
H63 H 0.39495 0.09653 0.68313 0.0
H64 H 0.50463 0.77183 0.56337 0.0
N65 N 0.52351 0.95348 0.31135 0.0
N66 N 0.61519 0.92531 0.15802 0.0
C67 C 0.57357 0.004 0.23885 0.0
C68 C 0.53037 0.8382 0.27118 0.0
C69 C 0.58703 0.82046 0.17589 0.0
C70 C 0.3655 0.21596 0.40419 0.0
O71 O 0.34421 0.32422 0.44426 0.0
H72 H 0.58935 0.09629 0.25899 0.0
H73 H 0.50548 0.77204 0.31869 0.0
O74 O 0.6214 0.07867 0.58126 0.0
H75 H 0.4315 0.76215 0.78187 0.0
H76 H 0.61168 0.73757 0.13219 0.0
loop_
_geom_bond_atom_site_label_1
_geom_bond_atom_site_label_2
_geom_bond_distance
_geom_bond_site_symmetry_2
_ccdc_geom_bond_type
C0 O27 1.312 1_655 S
C0 O28 1.208 . S
C1 O22 1.331 1_545 S
C1 O25 1.244 . S
C2 O24 1.264 1_545 S
C2 O26 1.273 . S
Mg3 O5 1.936 1_564 S
Mg3 O12 2.081 1_554 S
Mg3 O14 2.023 . S
Mg3 O18 2.031 1_554 S
Mg3 O27 2.291 . S
Mg4 O5 1.963 . S
Mg4 O15 1.942 . S
Mg4 O16 1.955 1_556 S
Mg4 O23 1.986 . S
O5 Mg3 1.936 1_546 S
O5 Mg4 1.963 . S
O5 Mg6 1.915 1_556 S
Mg6 O5 1.915 1_554 S
Mg6 O7 1.915 1_455 S
Mg6 O11 2.013 . S
Mg6 O17 2.114 1_444 S
Mg6 O21 2.013 1_454 S
Mg6 O27 2.114 1_545 S
O7 Mg6 1.915 1_655 S
O7 Mg8 1.936 1_544 S
O7 Mg9 1.963 . S
Mg8 O7 1.936 1_566 S
Mg8 O17 2.291 . S
Mg8 O22 2.081 1_556 S
Mg8 O24 2.023 . S
Mg8 O28 2.031 1_556 S
Mg9 O7 1.963 . S
Mg9 O13 1.986 . S
Mg9 O25 1.942 . S
Mg9 O26 1.955 1_554 S
C10 O21 1.191 1_455 S
C10 O23 1.307 . S
O11 Mg6 2.013 . S
O11 C30 1.191 1_455 S
O12 Mg3 2.081 1_556 S
O12 C20 1.331 . S
O13 Mg9 1.986 . S
O13 C30 1.307 . S
O14 Mg3 2.023 . S
O14 C29 1.264 1_565 S
O15 Mg4 1.942 . S
O15 C20 1.244 1_545 S
O16 Mg4 1.955 1_554 S
O16 C29 1.273 . S
O17 Mg6 2.114 1_666 S
O17 Mg8 2.291 . S
O17 C19 1.308 1_655 S
O18 Mg3 2.031 1_556 S
O18 C19 1.213 . S
C19 O17 1.308 1_455 S
C19 O18 1.213 . S
C20 O12 1.331 . S
C20 O15 1.244 1_565 S
O21 Mg6 2.013 1_656 S
O21 C10 1.191 1_655 S
O22 C1 1.331 1_565 S
O22 Mg8 2.081 1_554 S
O23 Mg4 1.986 . S
O23 C10 1.307 . S
O24 C2 1.264 1_565 S
O24 Mg8 2.023 . S
O25 C1 1.244 . S
O25 Mg9 1.942 . S
O26 C2 1.273 . S
O26 Mg9 1.955 1_556 S
O27 C0 1.312 1_455 S
O27 Mg3 2.291 . S
O27 Mg6 2.114 1_565 S
O28 C0 1.208 . S
O28 Mg8 2.031 1_554 S
C29 O14 1.264 1_545 S
C29 O16 1.273 . S
C30 O11 1.191 1_655 S
C30 O13 1.307 . S
Cu31 N32 1.999 . S
Cu31 O37 1.974 . S
Cu31 N42 1.985 . S
Cu31 O51 1.959 . S
N32 Cu31 1.999 . S
N32 C34 1.263 . S
N32 C36 1.389 . S
N33 C34 1.358 . S
N33 C35 1.400 . S
C34 N32 1.263 . S
C34 N33 1.358 . S
C34 H40 0.930 1_655 S
C35 N33 1.400 . S
C35 C36 1.351 . S
C35 H52 0.930 . S
C36 N32 1.389 . S
C36 C35 1.351 . S
C36 H41 0.930 . S
O37 Cu31 1.974 . S
O37 C47 1.282 1_655 S
C38 O39 1.261 . S
C38 O51 1.251 1_455 S
O39 C38 1.261 . S
H40 C34 0.930 1_455 S
H41 C36 0.930 . S
N42 Cu31 1.985 . S
N42 C44 1.335 . S
N42 C45 1.390 1_655 S
N43 C44 1.345 . S
N43 C46 1.336 1_655 S
C44 N42 1.335 . S
C44 N43 1.345 . S
C44 H49 0.930 . S
C45 N42 1.390 1_455 S
C45 C46 1.346 . S
C45 H50 0.930 . S
C46 N43 1.336 1_455 S
C46 C45 1.346 . S
C46 H53 0.929 . S
C47 O37 1.282 1_455 S
C47 O48 1.216 . S
O48 C47 1.216 . S
H49 C44 0.930 . S
H50 C45 0.930 . S
O51 Cu31 1.959 . S
O51 C38 1.251 1_655 S
H52 C35 0.930 . S
H53 C46 0.929 . S
Cu54 N55 1.999 . S
Cu54 O60 1.974 . S
Cu54 N65 1.985 . S
Cu54 O74 1.959 . S
N55 Cu54 1.999 . S
N55 C57 1.263 . S
N55 C59 1.389 . S
N56 C57 1.358 . S
N56 C58 1.400 . S
C57 N55 1.263 . S
C57 N56 1.358 . S
C57 H63 0.930 1_545 S
C58 N56 1.400 . S
C58 C59 1.351 . S
C58 H75 0.930 . S
C59 N55 1.389 . S
C59 C58 1.351 . S
C59 H64 0.930 . S
O60 Cu54 1.974 . S
O60 C70 1.282 1_545 S
C61 O62 1.261 . S
C61 O74 1.251 1_565 S
O62 C61 1.261 . S
H63 C57 0.930 1_565 S
H64 C59 0.930 . S
N65 Cu54 1.985 . S
N65 C67 1.335 . S
N65 C68 1.390 1_545 S
N66 C67 1.345 . S
N66 C69 1.336 1_545 S
C67 N65 1.335 . S
C67 N66 1.345 . S
C67 H72 0.930 . S
C68 N65 1.390 1_565 S
C68 C69 1.346 . S
C68 H73 0.930 . S
C69 N66 1.336 1_565 S
C69 C68 1.346 . S
C69 H76 0.929 . S
C70 O60 1.282 1_565 S
C70 O71 1.216 . S
O71 C70 1.216 . S
H72 C67 0.930 . S
H73 C68 0.930 . S
O74 Cu54 1.959 . S
O74 C61 1.251 1_545 S
H75 C58 0.930 . S
H76 C69 0.929 . S
C30 C47 1.628 1_655 S
C1 N66 1.261 . S
C0 N43 1.281 . S
C29 C70 1.831 1_545 S
C19 C38 1.629 . S
C20 N56 1.546 1_565 S
N33 C10 1.473 1_655 S
C2 C61 1.677 1_545 S
