# Generated by pormake.
# Topology pth, (4,4)-cn, num edge types: 1
# Building blocks:
#     Node 0, Type 0, BuildingBlock: QUQFOY_clean_sbu_3, # of connection points: 4
#     Node 1, Type 0, BuildingBlock: QUQFOY_clean_sbu_3, # of connection points: 4
#     Node 2, Type 0, BuildingBlock: QUQFOY_clean_sbu_3, # of connection points: 4
#     Node 3, Type 1, BuildingBlock: MUDLON_clean_sbu_0, # of connection points: 4
#     Node 4, Type 1, BuildingBlock: MUDLON_clean_sbu_0, # of connection points: 4
#     Node 5, Type 1, BuildingBlock: MUDLON_clean_sbu_0, # of connection points: 4
#     Edge 6, Type (0, 1), BuildingBlock: OJICUG_clean_linker_0, # of connection points: 2
#     Edge 7, Type (0, 1), BuildingBlock: OJICUG_clean_linker_0, # of connection points: 2
#     Edge 8, Type (0, 1), BuildingBlock: OJICUG_clean_linker_0, # of connection points: 2
#     Edge 9, Type (0, 1), BuildingBlock: OJICUG_clean_linker_0, # of connection points: 2
#     Edge 10, Type (0, 1), BuildingBlock: OJICUG_clean_linker_0, # of connection points: 2
#     Edge 11, Type (0, 1), BuildingBlock: OJICUG_clean_linker_0, # of connection points: 2
#     Edge 12, Type (0, 1), BuildingBlock: OJICUG_clean_linker_0, # of connection points: 2
#     Edge 13, Type (0, 1), BuildingBlock: OJICUG_clean_linker_0, # of connection points: 2
#     Edge 14, Type (0, 1), BuildingBlock: OJICUG_clean_linker_0, # of connection points: 2
#     Edge 15, Type (0, 1), BuildingBlock: OJICUG_clean_linker_0, # of connection points: 2
#     Edge 16, Type (0, 1), BuildingBlock: OJICUG_clean_linker_0, # of connection points: 2
#     Edge 17, Type (0, 1), BuildingBlock: OJICUG_clean_linker_0, # of connection points: 2
# Relax obj value: 0.015
# Max RMSD: 0.070
# Mean RMSD: 0.054
data_MOF--net-pth--node1-QUQFOY_clean_sbu_3--node2-MUDLON_clean_sbu_0--edge1-OJICUG_clean_linker_0
_symmetry_space_group_name_H-M    P1
_symmetry_Int_Tables_number       1
_symmetry_cell_setting            triclinic
loop_
_symmetry_equiv_pos_as_xyz
'x, y, z'
_cell_length_a     16.959407
_cell_length_b     16.746926
_cell_length_c     46.027568
_cell_angle_alpha  90.271259
_cell_angle_beta   91.009189
_cell_angle_gamma 120.21291
loop_
_atom_site_label
_atom_site_type_symbol
_atom_site_fract_x
_atom_site_fract_y
_atom_site_fract_z
_atom_type_partial_charge
C0 C 0.01787 0.26501 0.11138 0.0
O1 O 0.99136 0.26436 0.08534 0.0
Cd2 Cd 0.98947 0.16683 0.04643 0.0
O3 O 0.05079 0.21384 0.11859 0.0
Cd4 Cd 0.08398 0.10114 0.09324 0.0
C5 C 0.21673 0.24233 0.04034 0.0
O6 O 0.93442 0.01766 0.06657 0.0
O7 O 0.0349 0.98151 0.0554 0.0
O8 O 0.07105 0.02494 0.1404 0.0
C9 C 0.95452 0.96683 0.05176 0.0
O10 O 0.14294 0.22703 0.02768 0.0
C11 C 0.13884 0.01358 0.13651 0.0
O12 O 0.21638 0.21471 0.06609 0.0
O13 O 0.18133 0.04412 0.11306 0.0
C14 C 0.21817 0.12892 0.44748 0.0
O15 O 0.26209 0.17501 0.42566 0.0
Cd16 Cd 0.18827 0.20011 0.38382 0.0
O17 O 0.13157 0.09203 0.44784 0.0
Cd18 Cd 0.00321 0.07939 0.4174 0.0
C19 C 0.03515 0.98163 0.35764 0.0
O20 O 0.0839 0.24374 0.40197 0.0
O21 O 0.94954 0.15323 0.38376 0.0
O22 O 0.93221 0.07328 0.46396 0.0
C23 C 0.01863 0.23364 0.38552 0.0
O24 O 0.10381 0.06119 0.35316 0.0
C25 C 0.85261 0.01011 0.45616 0.0
O26 O 0.99153 0.96484 0.38119 0.0
O27 O 0.84312 0.97785 0.43052 0.0
C28 C 0.92564 0.14514 0.7179 0.0
O29 O 0.91568 0.17832 0.74149 0.0
Cd30 Cd 0.99689 0.18102 0.78575 0.0
O31 O 0.97814 0.11127 0.7173 0.0
Cd32 Cd 0.08032 0.0863 0.75059 0.0
C33 C 0.92108 0.9524 0.79784 0.0
O34 O 0.15572 0.23995 0.77656 0.0
O35 O 0.1759 0.13254 0.79414 0.0
O36 O 0.16932 0.10399 0.70704 0.0
C37 C 0.19523 0.21602 0.79534 0.0
O38 O 0.93033 0.0279 0.80771 0.0
C39 C 0.1834 0.038 0.71272 0.0
O40 O 0.95867 0.95059 0.77436 0.0
O41 O 0.15032 0.99482 0.73602 0.0
Mg42 Mg 0.06536 0.61833 0.25586 0.0
C43 C 0.03452 0.49394 0.3008 0.0
O44 O 0.95759 0.47114 0.28683 0.0
C45 C 0.18384 0.76551 0.21198 0.0
O46 O 0.18415 0.69613 0.19867 0.0
C47 C 0.99849 0.51101 0.19651 0.0
O48 O 0.98472 0.57799 0.18811 0.0
O49 O 0.0246 0.51082 0.22254 0.0
O50 O 0.10716 0.56462 0.29233 0.0
O51 O 0.96349 0.64088 0.27632 0.0
C52 C 0.95695 0.70943 0.26786 0.0
O53 O 0.97997 0.73772 0.24115 0.0
O54 O 0.15447 0.75454 0.23774 0.0
Mg55 Mg 0.52885 0.04522 0.5827 0.0
C56 C 0.40143 0.06611 0.5445 0.0
O57 O 0.35307 0.98639 0.55729 0.0
C58 C 0.69647 0.0897 0.61684 0.0
O59 O 0.67932 0.01609 0.60161 0.0
C60 C 0.42073 0.9794 0.6387 0.0
O61 O 0.50022 0.00098 0.65049 0.0
O62 O 0.41242 0.97916 0.61119 0.0
O63 O 0.4861 0.11515 0.55127 0.0
O64 O 0.56835 0.96299 0.55619 0.0
C65 C 0.55858 0.9565 0.52866 0.0
O66 O 0.50311 0.97957 0.51598 0.0
O67 O 0.64616 0.12527 0.61259 0.0
Mg68 Mg 0.58956 0.58506 0.9215 0.0
C69 C 0.4476 0.45089 0.88556 0.0
O70 O 0.5002 0.41962 0.89521 0.0
C71 C 0.72588 0.71919 0.95897 0.0
O72 O 0.75276 0.66411 0.94829 0.0
C73 C 0.54194 0.47748 0.97821 0.0
O74 O 0.58725 0.5602 0.99019 0.0
O75 O 0.54634 0.46837 0.95089 0.0
O76 O 0.46739 0.53234 0.89329 0.0
O77 O 0.7016 0.62863 0.89129 0.0
C78 C 0.69033 0.62995 0.8639 0.0
O79 O 0.60807 0.58089 0.85234 0.0
O80 O 0.64762 0.70563 0.95086 0.0
C81 C 0.98029 0.38743 0.12513 0.0
C82 C 0.00963 0.32551 0.1334 0.0
H83 H 0.95311 0.49388 0.13844 0.0
C84 C 0.03071 0.32206 0.16287 0.0
H85 H 0.9631 0.3918 0.10265 0.0
C86 C 0.02418 0.38017 0.18344 0.0
C87 C 0.99688 0.44359 0.17506 0.0
H88 H 0.0529 0.27489 0.17007 0.0
H89 H 0.04236 0.37651 0.20587 0.0
C90 C 0.97419 0.44588 0.14569 0.0
C91 C 0.78736 0.99487 0.50547 0.0
C92 C 0.77382 0.98082 0.47528 0.0
H93 H 0.7289 0.99464 0.54622 0.0
C94 C 0.68543 0.94585 0.46335 0.0
H95 H 0.85464 0.02108 0.51527 0.0
C96 C 0.6134 0.93211 0.48103 0.0
C97 C 0.62802 0.95094 0.51105 0.0
H98 H 0.67302 0.93429 0.44012 0.0
H99 H 0.54725 0.91056 0.47103 0.0
C100 C 0.71498 0.97897 0.52322 0.0
C101 C 0.81511 0.7811 0.80044 0.0
C102 C 0.86896 0.867 0.81454 0.0
H103 H 0.71528 0.6376 0.8052 0.0
C104 C 0.87177 0.87147 0.84503 0.0
H105 H 0.81224 0.77587 0.77693 0.0
C106 C 0.81923 0.79222 0.86116 0.0
C107 C 0.76071 0.70726 0.8471 0.0
H108 H 0.91378 0.93668 0.85644 0.0
H109 H 0.82047 0.79885 0.88462 0.0
C110 C 0.76022 0.70208 0.81659 0.0
C111 C 0.20669 0.914 0.14727 0.0
C112 C 0.16336 0.96152 0.15717 0.0
H113 H 0.24744 0.81467 0.15687 0.0
C114 C 0.13908 0.9541 0.18644 0.0
H115 H 0.22662 0.91876 0.12483 0.0
C116 C 0.15382 0.89677 0.20508 0.0
C117 C 0.19002 0.84298 0.19457 0.0
H118 H 0.10683 0.99099 0.19478 0.0
H119 H 0.13214 0.89091 0.22732 0.0
C120 C 0.21894 0.85457 0.16567 0.0
C121 C 0.36327 0.16462 0.47481 0.0
C122 C 0.26714 0.11796 0.47287 0.0
H123 H 0.48193 0.18633 0.4993 0.0
C124 C 0.21721 0.05991 0.49564 0.0
H125 H 0.40389 0.21042 0.45775 0.0
C126 C 0.26171 0.04639 0.51922 0.0
C127 C 0.35747 0.09095 0.5209 0.0
H128 H 0.14329 0.02332 0.49509 0.0
H129 H 0.2206 -0.00047 0.53602 0.0
C130 C 0.40808 0.15155 0.4987 0.0
C131 C 0.28233 0.37284 0.82051 0.0
C132 C 0.25413 0.27802 0.8193 0.0
H133 H 0.36587 0.50335 0.84285 0.0
C134 C 0.28334 0.24105 0.84148 0.0
H135 H 0.26028 0.40312 0.80381 0.0
C136 C 0.34205 0.29743 0.86363 0.0
C137 C 0.37386 0.39273 0.86433 0.0
H138 H 0.26207 0.16826 0.84158 0.0
H139 H 0.3645 0.26625 0.87994 0.0
C140 C 0.34197 0.42998 0.84294 0.0
C141 C 0.81099 0.17388 0.69112 0.0
C142 C 0.87391 0.14227 0.69111 0.0
H143 H 0.70587 0.18359 0.66733 0.0
C144 C 0.88459 0.10381 0.66532 0.0
H145 H 0.80148 0.20447 0.71056 0.0
C146 C 0.83038 0.09232 0.64075 0.0
C147 C 0.76421 0.11931 0.64115 0.0
H148 H 0.93295 0.07966 0.66431 0.0
H149 H 0.83824 0.05914 0.62164 0.0
C150 C 0.75672 0.16271 0.66631 0.0
C151 C 0.92508 0.85763 0.01066 0.0
C152 C 0.89401 0.90447 0.02814 0.0
H153 H 0.89767 0.76505 0.97512 0.0
C154 C 0.80705 0.8929 0.0221 0.0
H155 H 0.99178 0.86529 0.01449 0.0
C156 C 0.75205 0.83447 0.99917 0.0
C157 C 0.78341 0.78699 0.98196 0.0
H158 H 0.78147 0.92864 0.03513 0.0
H159 H 0.68488 0.82544 0.99522 0.0
C160 C 0.87083 0.80009 0.98792 0.0
C161 C 0.02126 0.93557 0.30536 0.0
C162 C 0.00458 0.90958 0.33457 0.0
H163 H 0.01515 0.89247 0.26126 0.0
C164 C 0.96032 0.81521 0.34126 0.0
H165 H 0.05363 0.00767 0.29947 0.0
C166 C 0.93916 0.7487 0.31928 0.0
C167 C 0.96003 0.7753 0.29016 0.0
H168 H 0.94589 0.79319 0.36358 0.0
H169 H 0.9098 0.67691 0.32522 0.0
C170 C 0.9982 0.86921 0.28338 0.0
C171 C 0.23996 0.03147 0.66353 0.0
C172 C 0.23718 0.01387 0.69338 0.0
H173 H 0.29756 0.03084 0.62263 0.0
C174 C 0.28858 0.97597 0.70467 0.0
H175 H 0.20043 0.05995 0.65423 0.0
C176 C 0.3458 0.96094 0.68667 0.0
C177 C 0.35037 0.98082 0.65692 0.0
H178 H 0.28754 0.96169 0.72763 0.0
H179 H 0.38806 0.93586 0.69615 0.0
C180 C 0.29495 0.01389 0.64541 0.0
C181 C 0.30352 0.28812 0.99429 0.0
C182 C 0.30349 0.2931 0.02477 0.0
H183 H 0.38026 0.33976 0.95563 0.0
C184 C 0.38614 0.34968 0.03994 0.0
H185 H 0.24097 0.24403 0.98206 0.0
C186 C 0.46597 0.4056 0.02477 0.0
C187 C 0.46496 0.404 0.99421 0.0
H188 H 0.3881 0.35441 0.06345 0.0
H189 H 0.52758 0.45294 0.0369 0.0
C190 C 0.38365 0.34212 0.97917 0.0
C191 C 0.94508 0.29698 0.35341 0.0
C192 C 0.02504 0.30754 0.36653 0.0
H193 H 0.88566 0.34756 0.32297 0.0
C194 C 0.10954 0.38458 0.35948 0.0
H195 H 0.8789 0.23891 0.35855 0.0
C196 C 0.11376 0.44754 0.33859 0.0
C197 C 0.03346 0.43437 0.32469 0.0
H198 H 0.17236 0.39422 0.36926 0.0
H199 H 0.17966 0.50474 0.33281 0.0
C200 C 0.94916 0.35955 0.3329 0.0
loop_
_geom_bond_atom_site_label_1
_geom_bond_atom_site_label_2
_geom_bond_distance
_geom_bond_site_symmetry_2
_ccdc_geom_bond_type
C0 O1 1.306 . S
C0 O3 1.160 . S
O1 C0 1.306 . S
O1 Cd2 2.228 1_455 S
Cd2 O1 2.228 1_655 S
Cd2 O6 2.273 . S
Cd2 O10 2.277 1_655 S
O3 C0 1.160 . S
O3 Cd4 2.203 . S
Cd4 O3 2.203 . S
Cd4 O6 2.411 1_455 S
Cd4 O7 2.333 1_545 S
Cd4 O8 2.352 1_545 S
Cd4 O12 2.277 . S
Cd4 O13 2.356 1_545 S
C5 O10 1.209 . S
C5 O12 1.226 . S
O6 Cd2 2.273 . S
O6 Cd4 2.411 1_655 S
O6 C9 1.320 1_545 S
O7 Cd4 2.333 1_565 S
O7 C9 1.214 1_455 S
O8 Cd4 2.352 1_565 S
O8 C11 1.258 . S
C9 O6 1.320 1_565 S
C9 O7 1.214 1_655 S
O10 Cd2 2.277 1_455 S
O10 C5 1.209 . S
C11 O8 1.258 . S
C11 O13 1.282 . S
O12 Cd4 2.277 . S
O12 C5 1.226 . S
O13 Cd4 2.356 1_565 S
O13 C11 1.282 . S
C14 O15 1.306 . S
C14 O17 1.160 . S
O15 C14 1.306 . S
O15 Cd16 2.228 . S
Cd16 O15 2.228 . S
Cd16 O20 2.273 . S
Cd16 O24 2.277 . S
O17 C14 1.160 . S
O17 Cd18 2.203 . S
Cd18 O17 2.203 . S
Cd18 O20 2.411 . S
Cd18 O21 2.333 1_455 S
Cd18 O22 2.352 1_455 S
Cd18 O26 2.277 1_445 S
Cd18 O27 2.356 1_445 S
C19 O24 1.209 1_565 S
C19 O26 1.226 1_455 S
O20 Cd16 2.273 . S
O20 Cd18 2.411 . S
O20 C23 1.320 . S
O21 Cd18 2.333 1_655 S
O21 C23 1.214 1_655 S
O22 Cd18 2.352 1_655 S
O22 C25 1.258 . S
C23 O20 1.320 . S
C23 O21 1.214 1_455 S
O24 Cd16 2.277 . S
O24 C19 1.209 1_545 S
C25 O22 1.258 . S
C25 O27 1.282 1_545 S
O26 Cd18 2.277 1_665 S
O26 C19 1.226 1_655 S
O27 Cd18 2.356 1_665 S
O27 C25 1.282 1_565 S
C28 O29 1.306 . S
C28 O31 1.160 . S
O29 C28 1.306 . S
O29 Cd30 2.228 . S
Cd30 O29 2.228 . S
Cd30 O34 2.273 1_655 S
Cd30 O38 2.277 . S
O31 C28 1.160 . S
O31 Cd32 2.203 1_655 S
Cd32 O31 2.203 1_455 S
Cd32 O34 2.411 . S
Cd32 O35 2.333 . S
Cd32 O36 2.352 . S
Cd32 O40 2.277 1_445 S
Cd32 O41 2.356 . S
C33 O38 1.209 1_565 S
C33 O40 1.226 . S
O34 Cd30 2.273 1_455 S
O34 Cd32 2.411 . S
O34 C37 1.320 . S
O35 Cd32 2.333 . S
O35 C37 1.214 . S
O36 Cd32 2.352 . S
O36 C39 1.258 . S
C37 O34 1.320 . S
C37 O35 1.214 . S
O38 Cd30 2.277 . S
O38 C33 1.209 1_545 S
C39 O36 1.258 . S
C39 O41 1.282 . S
O40 Cd32 2.277 1_665 S
O40 C33 1.226 . S
O41 Cd32 2.356 . S
O41 C39 1.282 . S
Mg42 O49 2.141 . S
Mg42 O50 2.048 . S
Mg42 O51 2.048 . S
Mg42 O54 2.141 . S
C43 O44 1.313 1_455 S
C43 O50 1.195 . S
O44 C43 1.313 1_655 S
C45 O46 1.245 1_455 S
C45 O54 1.289 . S
O46 C45 1.245 1_655 S
C47 O48 1.245 1_455 S
C47 O49 1.289 . S
O48 C47 1.245 1_655 S
O49 Mg42 2.141 . S
O49 C47 1.289 . S
O50 Mg42 2.048 . S
O50 C43 1.195 . S
O51 Mg42 2.048 . S
O51 C52 1.195 . S
C52 O51 1.195 . S
C52 O53 1.313 1_455 S
O53 C52 1.313 1_655 S
O54 Mg42 2.141 . S
O54 C45 1.289 . S
Mg55 O62 2.141 . S
Mg55 O63 2.048 . S
Mg55 O64 2.048 . S
Mg55 O67 2.141 . S
C56 O57 1.313 1_545 S
C56 O63 1.195 . S
O57 C56 1.313 1_565 S
C58 O59 1.245 1_545 S
C58 O67 1.289 . S
O59 C58 1.245 1_565 S
C60 O61 1.245 1_545 S
C60 O62 1.289 . S
O61 C60 1.245 1_565 S
O62 Mg55 2.141 . S
O62 C60 1.289 . S
O63 Mg55 2.048 . S
O63 C56 1.195 . S
O64 Mg55 2.048 . S
O64 C65 1.195 . S
C65 O64 1.195 . S
C65 O66 1.313 1_545 S
O66 C65 1.313 1_565 S
O67 Mg55 2.141 . S
O67 C58 1.289 . S
Mg68 O75 2.141 . S
Mg68 O76 2.048 . S
Mg68 O77 2.048 . S
Mg68 O80 2.141 . S
C69 O70 1.313 . S
C69 O76 1.195 . S
O70 C69 1.313 . S
C71 O72 1.245 . S
C71 O80 1.289 . S
O72 C71 1.245 . S
C73 O74 1.245 . S
C73 O75 1.289 . S
O74 C73 1.245 . S
O75 Mg68 2.141 . S
O75 C73 1.289 . S
O76 Mg68 2.048 . S
O76 C69 1.195 . S
O77 Mg68 2.048 . S
O77 C78 1.195 . S
C78 O77 1.195 . S
C78 O79 1.313 . S
O79 C78 1.313 . S
O80 Mg68 2.141 . S
O80 C71 1.289 . S
C81 C82 1.387 1_655 S
C81 H85 0.950 . S
C81 C90 1.390 . S
C82 C81 1.387 1_455 S
C82 C84 1.387 . S
H83 C90 0.950 . S
C84 C82 1.387 . S
C84 C86 1.390 . S
C84 H88 0.950 . S
H85 C81 0.950 . S
C86 C84 1.390 . S
C86 C87 1.387 . S
C86 H89 0.950 . S
C87 C86 1.387 . S
C87 C90 1.387 1_455 S
H88 C84 0.950 . S
H89 C86 0.950 . S
C90 C81 1.390 . S
C90 H83 0.950 . S
C90 C87 1.387 1_655 S
C91 C92 1.387 . S
C91 H95 0.950 . S
C91 C100 1.390 . S
C92 C91 1.387 . S
C92 C94 1.387 1_545 S
H93 C100 0.950 . S
C94 C92 1.387 1_565 S
C94 C96 1.390 . S
C94 H98 0.950 . S
H95 C91 0.950 . S
C96 C94 1.390 . S
C96 C97 1.387 1_565 S
C96 H99 0.950 . S
C97 C96 1.387 1_545 S
C97 C100 1.387 . S
H98 C94 0.950 . S
H99 C96 0.950 . S
C100 C91 1.390 . S
C100 H93 0.950 . S
C100 C97 1.387 . S
C101 C102 1.387 . S
C101 H105 0.950 . S
C101 C110 1.390 . S
C102 C101 1.387 . S
C102 C104 1.387 . S
H103 C110 0.950 . S
C104 C102 1.387 . S
C104 C106 1.390 . S
C104 H108 0.950 . S
H105 C101 0.950 . S
C106 C104 1.390 . S
C106 C107 1.387 . S
C106 H109 0.950 . S
C107 C106 1.387 . S
C107 C110 1.387 . S
H108 C104 0.950 . S
H109 C106 0.950 . S
C110 C101 1.390 . S
C110 H103 0.950 . S
C110 C107 1.387 . S
C111 C112 1.387 . S
C111 H115 0.950 . S
C111 C120 1.390 . S
C112 C111 1.387 . S
C112 C114 1.387 . S
H113 C120 0.950 . S
C114 C112 1.387 . S
C114 C116 1.390 . S
C114 H118 0.950 . S
H115 C111 0.950 . S
C116 C114 1.390 . S
C116 C117 1.387 . S
C116 H119 0.950 . S
C117 C116 1.387 . S
C117 C120 1.387 . S
H118 C114 0.950 . S
H119 C116 0.950 . S
C120 C111 1.390 . S
C120 H113 0.950 . S
C120 C117 1.387 . S
C121 C122 1.387 . S
C121 H125 0.950 . S
C121 C130 1.390 . S
C122 C121 1.387 . S
C122 C124 1.387 . S
H123 C130 0.950 . S
C124 C122 1.387 . S
C124 C126 1.390 . S
C124 H128 0.950 1_545 S
H125 C121 0.950 . S
C126 C124 1.390 . S
C126 C127 1.387 . S
C126 H129 0.950 1_545 S
C127 C126 1.387 . S
C127 C130 1.387 . S
H128 C124 0.950 1_565 S
H129 C126 0.950 1_565 S
C130 C121 1.390 . S
C130 H123 0.950 . S
C130 C127 1.387 . S
C131 C132 1.387 . S
C131 H135 0.950 . S
C131 C140 1.390 . S
C132 C131 1.387 . S
C132 C134 1.387 . S
H133 C140 0.950 . S
C134 C132 1.387 . S
C134 C136 1.390 . S
C134 H138 0.950 . S
H135 C131 0.950 . S
C136 C134 1.390 . S
C136 C137 1.387 . S
C136 H139 0.950 . S
C137 C136 1.387 . S
C137 C140 1.387 . S
H138 C134 0.950 . S
H139 C136 0.950 . S
C140 C131 1.390 . S
C140 H133 0.950 . S
C140 C137 1.387 . S
C141 C142 1.387 . S
C141 H145 0.950 . S
C141 C150 1.390 . S
C142 C141 1.387 . S
C142 C144 1.387 . S
H143 C150 0.950 . S
C144 C142 1.387 . S
C144 C146 1.390 . S
C144 H148 0.950 1_545 S
H145 C141 0.950 . S
C146 C144 1.390 . S
C146 C147 1.387 . S
C146 H149 0.950 1_545 S
C147 C146 1.387 . S
C147 C150 1.387 . S
H148 C144 0.950 1_565 S
H149 C146 0.950 1_565 S
C150 C141 1.390 . S
C150 H143 0.950 . S
C150 C147 1.387 . S
C151 C152 1.387 . S
C151 H155 0.950 . S
C151 C160 1.390 . S
C152 C151 1.387 . S
C152 C154 1.387 1_554 S
H153 C160 0.950 . S
C154 C152 1.387 1_556 S
C154 C156 1.390 . S
C154 H158 0.950 1_565 S
H155 C151 0.950 . S
C156 C154 1.390 . S
C156 C157 1.387 . S
C156 H159 0.950 . S
C157 C156 1.387 . S
C157 C160 1.387 1_556 S
H158 C154 0.950 1_545 S
H159 C156 0.950 . S
C160 C151 1.390 . S
C160 H153 0.950 . S
C160 C157 1.387 1_554 S
C161 C162 1.387 . S
C161 H165 0.950 . S
C161 C170 1.390 . S
C162 C161 1.387 . S
C162 C164 1.387 . S
H163 C170 0.950 . S
C164 C162 1.387 . S
C164 C166 1.390 . S
C164 H168 0.950 . S
H165 C161 0.950 . S
C166 C164 1.390 . S
C166 C167 1.387 . S
C166 H169 0.950 . S
C167 C166 1.387 . S
C167 C170 1.387 . S
H168 C164 0.950 . S
H169 C166 0.950 . S
C170 C161 1.390 . S
C170 H163 0.950 . S
C170 C167 1.387 . S
C171 C172 1.387 . S
C171 H175 0.950 . S
C171 C180 1.390 . S
C172 C171 1.387 . S
C172 C174 1.387 1_545 S
H173 C180 0.950 . S
C174 C172 1.387 1_565 S
C174 C176 1.390 1_565 S
C174 H178 0.950 . S
H175 C171 0.950 . S
C176 C174 1.390 1_545 S
C176 C177 1.387 . S
C176 H179 0.950 1_545 S
C177 C176 1.387 . S
C177 C180 1.387 . S
H178 C174 0.950 . S
H179 C176 0.950 1_565 S
C180 C171 1.390 . S
C180 H173 0.950 . S
C180 C177 1.387 . S
C181 C182 1.387 1_556 S
C181 H185 0.950 . S
C181 C190 1.390 . S
C182 C181 1.387 1_554 S
C182 C184 1.387 . S
H183 C190 0.950 . S
C184 C182 1.387 . S
C184 C186 1.390 . S
C184 H188 0.950 . S
H185 C181 0.950 . S
C186 C184 1.390 . S
C186 C187 1.387 1_554 S
C186 H189 0.950 . S
C187 C186 1.387 1_556 S
C187 C190 1.387 . S
H188 C184 0.950 . S
H189 C186 0.950 . S
C190 C181 1.390 . S
C190 H183 0.950 . S
C190 C187 1.387 . S
C191 C192 1.387 . S
C191 H195 0.950 . S
C191 C200 1.390 . S
C192 C191 1.387 . S
C192 C194 1.387 . S
H193 C200 0.950 . S
C194 C192 1.387 . S
C194 C196 1.390 . S
C194 H198 0.950 . S
H195 C191 0.950 . S
C196 C194 1.390 . S
C196 C197 1.387 . S
C196 H199 0.950 . S
C197 C196 1.387 . S
C197 C200 1.387 . S
H198 C194 0.950 . S
H199 C196 0.950 . S
C200 C191 1.390 . S
C200 H193 0.950 . S
C200 C197 1.387 . S
C87 C47 1.415 . S
C82 C0 1.430 . S
C92 C25 1.495 . S
C97 C65 1.486 . S
C102 C33 1.511 . S
C107 C78 1.500 . S
C112 C11 1.399 . S
C117 C45 1.389 . S
C127 C56 1.494 . S
C122 C14 1.495 . S
C132 C37 1.500 . S
C137 C69 1.498 . S
C147 C58 1.430 . S
C142 C28 1.437 . S
C152 C9 1.445 . S
C157 C71 1.436 . S
C167 C52 1.514 . S
C162 C19 1.521 . S
C177 C60 1.423 . S
C172 C39 1.437 . S
C187 C73 1.437 . S
C182 C5 1.453 . S
C192 C23 1.538 . S
C197 C43 1.539 . S
