# Generated by pormake.
# Topology bcu-b, (8,8)-cn, num edge types: 1
# Building blocks:
#     Node 0, Type 0, BuildingBlock: TAGTUT_clean_sbu_1, # of connection points: 8
#     Node 1, Type 1, BuildingBlock: VETTIZ_charged_sbu_0, # of connection points: 8
#     Edge 2, Type (0, 1), BuildingBlock: CIFDUS_clean_linker_0, # of connection points: 2
#     Edge 3, Type (0, 1), BuildingBlock: CIFDUS_clean_linker_0, # of connection points: 2
#     Edge 4, Type (0, 1), BuildingBlock: CIFDUS_clean_linker_0, # of connection points: 2
#     Edge 5, Type (0, 1), BuildingBlock: CIFDUS_clean_linker_0, # of connection points: 2
#     Edge 6, Type (0, 1), BuildingBlock: CIFDUS_clean_linker_0, # of connection points: 2
#     Edge 7, Type (0, 1), BuildingBlock: CIFDUS_clean_linker_0, # of connection points: 2
#     Edge 8, Type (0, 1), BuildingBlock: CIFDUS_clean_linker_0, # of connection points: 2
#     Edge 9, Type (0, 1), BuildingBlock: CIFDUS_clean_linker_0, # of connection points: 2
# Relax obj value: 0.027
# Max RMSD: 0.118
# Mean RMSD: 0.087
data_MOF--net-bcu-b--node1-TAGTUT_clean_sbu_1--node2-VETTIZ_charged_sbu_0--edge1-CIFDUS_clean_linker_0
_symmetry_space_group_name_H-M    P1
_symmetry_Int_Tables_number       1
_symmetry_cell_setting            triclinic
loop_
_symmetry_equiv_pos_as_xyz
'x, y, z'
_cell_length_a     18.048828
_cell_length_b     17.079235
_cell_length_c     18.22474
_cell_angle_alpha  91.173511
_cell_angle_beta   91.498498
_cell_angle_gamma 99.50748
loop_
_atom_site_label
_atom_site_type_symbol
_atom_site_fract_x
_atom_site_fract_y
_atom_site_fract_z
_atom_type_partial_charge
C0 C 0.78189 0.15168 0.08292 0.0
C1 C 0.86641 0.14921 0.86287 0.0
C2 C 0.8993 0.84239 0.91757 0.0
Mg3 Mg 0.94112 0.17315 0.01658 0.0
O4 O 0.92409 0.06238 0.02933 0.0
Mg5 Mg 0.83185 0.99757 0.98315 0.0
Mg6 Mg 1.00047 1.00042 0.99412 0.0
O7 O 0.07873 0.93924 0.96028 0.0
Mg8 Mg 0.06555 0.83025 0.97966 0.0
Mg9 Mg 0.16961 0.00612 0.009 0.0
C10 C 0.10176 0.15256 0.08374 0.0
C11 C 0.10628 0.1096 0.88048 0.0
O12 O 0.76617 0.08142 0.05305 0.0
O13 O 0.84588 0.19599 0.07638 0.0
O14 O 0.83309 0.08231 0.88547 0.0
O15 O 0.91654 0.19378 0.90244 0.0
O16 O 0.05441 0.1992 0.06891 0.0
O17 O 0.08884 0.07872 0.06483 0.0
C18 C 0.89653 0.89324 0.10914 0.0
O19 O 0.96396 0.91731 0.08935 0.0
O20 O 0.83942 0.91575 0.078 0.0
O21 O 0.23847 0.92613 0.94234 0.0
O22 O 0.16222 0.80891 0.9207 0.0
O23 O 0.17014 0.92372 0.10763 0.0
C24 C 0.22506 0.85544 0.91375 0.0
O25 O 0.08767 0.81196 0.09415 0.0
O26 O 0.9507 0.80154 0.93523 0.0
C27 C 0.13736 0.85797 0.13252 0.0
O28 O 0.90971 0.91895 0.92502 0.0
O29 O 0.03825 0.08447 0.89844 0.0
O30 O 0.16269 0.08787 0.9136 0.0
Fe31 Fe 0.52283 0.69107 0.47075 0.0
O32 O 0.50491 0.57513 0.4591 0.0
Fe33 Fe 0.5902 0.51437 0.4966 0.0
Fe34 Fe 0.41814 0.50531 0.50189 0.0
O35 O 0.51218 0.57524 0.45865 0.0
O36 O 0.50267 0.4423 0.53674 0.0
O37 O 0.49545 0.4416 0.53585 0.0
Fe38 Fe 0.48324 0.32586 0.52002 0.0
C39 C 0.43144 0.6427 0.60816 0.0
O40 O 0.42722 0.68041 0.40489 0.0
O41 O 0.34677 0.58002 0.4587 0.0
O42 O 0.55717 0.32516 0.43581 0.0
O43 O 0.58239 0.44992 0.39881 0.0
O44 O 0.671 0.59652 0.44474 0.0
O45 O 0.60098 0.68405 0.3917 0.0
O46 O 0.40243 0.44388 0.40452 0.0
O47 O 0.39633 0.32011 0.44196 0.0
C48 C 0.65968 0.64896 0.39638 0.0
O49 O 0.57718 0.33438 0.58893 0.0
O50 O 0.65993 0.43983 0.54384 0.0
O51 O 0.45221 0.69284 0.55868 0.0
O52 O 0.43159 0.56877 0.5989 0.0
C53 C 0.36093 0.64046 0.41583 0.0
C54 C 0.3829 0.36981 0.39414 0.0
C55 C 0.34536 0.36553 0.59659 0.0
O56 O 0.3365 0.42357 0.55358 0.0
O57 O 0.40286 0.32877 0.59789 0.0
C58 C 0.58134 0.37584 0.38826 0.0
O59 O 0.60338 0.58192 0.59428 0.0
O60 O 0.61209 0.69945 0.54278 0.0
C61 C 0.64374 0.37658 0.58338 0.0
C62 C 0.61916 0.65766 0.59836 0.0
H63 H 0.16037 0.30627 0.11969 0.0
H64 H 0.19095 0.06525 0.15851 0.0
H65 H 0.28432 0.11107 0.25524 0.0
H66 H 0.34763 0.21853 0.33781 0.0
H67 H 0.31791 0.45991 0.29779 0.0
H68 H 0.23403 0.41503 0.1933 0.0
C69 C 0.1883 0.26387 0.14849 0.0
C70 C 0.1681 0.18229 0.13204 0.0
C71 C 0.24137 0.29062 0.20497 0.0
C72 C 0.20551 0.12833 0.16955 0.0
C73 C 0.25854 0.15446 0.22557 0.0
C74 C 0.32312 0.2613 0.30598 0.0
C75 C 0.33772 0.34215 0.32682 0.0
C76 C 0.27526 0.23526 0.24522 0.0
C77 C 0.30676 0.39705 0.28389 0.0
C78 C 0.2588 0.37154 0.22385 0.0
H79 H 0.77745 0.30517 0.12131 0.0
H80 H 0.66441 0.0661 0.15476 0.0
H81 H 0.58831 0.1153 0.24918 0.0
H82 H 0.56251 0.22491 0.32998 0.0
H83 H 0.67651 0.46353 0.29544 0.0
H84 H 0.74311 0.41578 0.19338 0.0
C85 C 0.73562 0.26374 0.14865 0.0
C86 C 0.72736 0.18183 0.13148 0.0
C87 C 0.69257 0.29236 0.20312 0.0
C88 C 0.67203 0.12935 0.16676 0.0
C89 C 0.62883 0.15745 0.22115 0.0
C90 C 0.60148 0.2666 0.29975 0.0
C91 C 0.61495 0.34774 0.32103 0.0
C92 C 0.63998 0.2386 0.24106 0.0
C93 C 0.66486 0.40095 0.28044 0.0
C94 C 0.70334 0.37357 0.22219 0.0
H95 H 0.79989 0.75759 0.10273 0.0
H96 H 0.95863 0.90509 0.24821 0.0
H97 H 0.9061 0.83021 0.35396 0.0
H98 H 0.79833 0.73987 0.40513 0.0
H99 H 0.63748 0.59861 0.2568 0.0
H100 H 0.70807 0.65225 0.15157 0.0
C101 C 0.82419 0.77164 0.15752 0.0
C102 C 0.88172 0.83691 0.16862 0.0
C103 C 0.79275 0.72977 0.21729 0.0
C104 C 0.91394 0.85482 0.23907 0.0
C105 C 0.88349 0.81252 0.29934 0.0
C106 C 0.7807 0.71923 0.34972 0.0
C107 C 0.71332 0.66583 0.33784 0.0
C108 C 0.82046 0.75239 0.28936 0.0
C109 C 0.68959 0.63967 0.26639 0.0
C110 C 0.72957 0.67062 0.20643 0.0
H111 H 0.11564 0.70759 0.18649 0.0
H112 H 0.22494 0.94805 0.23669 0.0
H113 H 0.29743 0.90139 0.33608 0.0
H114 H 0.34405 0.79152 0.39531 0.0
H115 H 0.23723 0.55053 0.34755 0.0
H116 H 0.14889 0.59804 0.26111 0.0
C117 C 0.15391 0.74996 0.22034 0.0
C118 C 0.16603 0.83106 0.20295 0.0
C119 C 0.19675 0.7225 0.27701 0.0
C120 C 0.21541 0.88519 0.24786 0.0
C121 C 0.25717 0.85858 0.3047 0.0
C122 C 0.30057 0.7495 0.36679 0.0
C123 C 0.29805 0.66773 0.37608 0.0
C124 C 0.25066 0.77722 0.31749 0.0
C125 C 0.24062 0.61378 0.34041 0.0
C126 C 0.19039 0.64098 0.29089 0.0
H127 H 0.23756 0.70374 0.8781 0.0
H128 H 0.33749 0.94645 0.84051 0.0
H129 H 0.41536 0.90154 0.74558 0.0
H130 H 0.44508 0.79392 0.66472 0.0
H131 H 0.34367 0.55172 0.70378 0.0
H132 H 0.27701 0.5959 0.80694 0.0
C133 C 0.277 0.74683 0.84975 0.0
C134 C 0.28096 0.8283 0.86559 0.0
C135 C 0.32097 0.72072 0.79503 0.0
C136 C 0.33326 0.88332 0.82927 0.0
C137 C 0.37745 0.85772 0.77463 0.0
C138 C 0.40888 0.75083 0.69624 0.0
C139 C 0.39872 0.66974 0.67586 0.0
C140 C 0.37018 0.77669 0.75563 0.0
C141 C 0.35258 0.61448 0.71806 0.0
C142 C 0.31405 0.6397 0.77698 0.0
H143 H 0.20272 0.2461 0.88799 0.0
H144 H 0.04907 0.09688 0.7392 0.0
H145 H 0.10326 0.17292 0.63471 0.0
H146 H 0.2097 0.26756 0.58568 0.0
H147 H 0.36373 0.41269 0.73742 0.0
H148 H 0.29353 0.35411 0.84106 0.0
C149 C 0.17984 0.23179 0.83275 0.0
C150 C 0.12287 0.16592 0.82069 0.0
C151 C 0.21189 0.27483 0.77363 0.0
C152 C 0.09296 0.14769 0.74939 0.0
C153 C 0.12443 0.19069 0.68977 0.0
C154 C 0.22592 0.28791 0.64146 0.0
C155 C 0.29116 0.34451 0.65451 0.0
C156 C 0.18607 0.25233 0.70103 0.0
C157 C 0.31306 0.36982 0.72663 0.0
C158 C 0.27336 0.33588 0.78577 0.0
H159 H 0.8839 0.30293 0.81714 0.0
H160 H 0.78185 0.06336 0.75401 0.0
H161 H 0.70962 0.11358 0.65624 0.0
H162 H 0.66236 0.22508 0.60017 0.0
H163 H 0.76119 0.46527 0.66198 0.0
H164 H 0.84833 0.41543 0.74823 0.0
C165 C 0.84731 0.26163 0.78083 0.0
C166 C 0.83748 0.17945 0.79384 0.0
C167 C 0.80449 0.29108 0.72519 0.0
C168 C 0.78984 0.12687 0.74604 0.0
C169 C 0.7482 0.15553 0.69016 0.0
C170 C 0.70375 0.26651 0.63184 0.0
C171 C 0.70482 0.34857 0.62575 0.0
C172 C 0.75288 0.23745 0.68122 0.0
C173 C 0.7594 0.40177 0.66593 0.0
C174 C 0.80884 0.37323 0.71547 0.0
H175 H 0.79851 0.90037 0.82806 0.0
H176 H 0.8473 0.68359 0.92119 0.0
H177 H 0.75814 0.60518 0.83494 0.0
H178 H 0.6813 0.59788 0.72026 0.0
H179 H 0.63228 0.81551 0.62859 0.0
H180 H 0.70529 0.8927 0.7268 0.0
C181 C 0.78807 0.83611 0.83087 0.0
C182 C 0.83094 0.79814 0.87975 0.0
C183 C 0.73749 0.79092 0.78012 0.0
C184 C 0.81619 0.71458 0.88296 0.0
C185 C 0.7653 0.6694 0.83343 0.0
C186 C 0.68555 0.66199 0.72256 0.0
C187 C 0.65334 0.70064 0.66572 0.0
C188 C 0.72815 0.70683 0.7795 0.0
C189 C 0.65838 0.78394 0.67035 0.0
C190 C 0.69996 0.82853 0.72678 0.0
loop_
_geom_bond_atom_site_label_1
_geom_bond_atom_site_label_2
_geom_bond_distance
_geom_bond_site_symmetry_2
_ccdc_geom_bond_type
C0 O12 1.241 . S
C0 O13 1.280 . S
C1 O14 1.277 . S
C1 O15 1.245 . S
C2 O26 1.247 . S
C2 O28 1.289 . S
Mg3 O4 1.926 . S
Mg3 O13 1.984 . S
Mg3 O15 1.988 1_554 S
Mg3 O16 2.061 1_655 S
O4 Mg3 1.926 . S
O4 Mg5 1.986 1_554 S
O4 Mg6 1.917 1_655 S
Mg5 O4 1.986 1_556 S
Mg5 O12 2.041 1_556 S
Mg5 O14 2.042 . S
Mg5 O20 2.037 1_546 S
Mg5 O28 2.238 1_545 S
Mg6 O4 1.917 1_455 S
Mg6 O7 1.917 1_544 S
Mg6 O17 2.106 . S
Mg6 O19 2.079 1_445 S
Mg6 O28 2.106 1_444 S
Mg6 O29 2.079 1_554 S
O7 Mg6 1.917 1_566 S
O7 Mg8 1.926 . S
O7 Mg9 1.985 1_556 S
Mg8 O7 1.926 . S
Mg8 O22 1.984 . S
Mg8 O25 1.988 1_556 S
Mg8 O26 2.061 1_455 S
Mg9 O7 1.985 1_554 S
Mg9 O17 2.240 1_565 S
Mg9 O21 2.039 1_554 S
Mg9 O23 2.045 . S
Mg9 O30 2.035 1_564 S
C10 O16 1.247 . S
C10 O17 1.289 . S
C11 O29 1.245 . S
C11 O30 1.274 . S
O12 C0 1.241 . S
O12 Mg5 2.041 1_554 S
O13 C0 1.280 . S
O13 Mg3 1.984 . S
O14 C1 1.277 . S
O14 Mg5 2.042 . S
O15 C1 1.245 . S
O15 Mg3 1.988 1_556 S
O16 Mg3 2.061 1_455 S
O16 C10 1.247 . S
O17 Mg6 2.106 . S
O17 Mg9 2.240 1_545 S
O17 C10 1.289 . S
C18 O19 1.245 . S
C18 O20 1.274 . S
O19 Mg6 2.079 1_665 S
O19 C18 1.245 . S
O20 Mg5 2.037 1_564 S
O20 C18 1.274 . S
O21 Mg9 2.039 1_556 S
O21 C24 1.241 . S
O22 Mg8 1.984 . S
O22 C24 1.280 . S
O23 Mg9 2.045 . S
O23 C27 1.277 . S
C24 O21 1.241 . S
C24 O22 1.280 . S
O25 Mg8 1.988 1_554 S
O25 C27 1.245 . S
O26 C2 1.247 . S
O26 Mg8 2.061 1_655 S
C27 O23 1.277 . S
C27 O25 1.245 . S
O28 C2 1.289 . S
O28 Mg5 2.238 1_565 S
O28 Mg6 2.106 1_666 S
O29 Mg6 2.079 1_556 S
O29 C11 1.245 . S
O30 Mg9 2.035 1_546 S
O30 C11 1.274 . S
Fe31 O32 1.886 . S
Fe31 O35 1.715 . S
Fe31 O40 2.077 . S
Fe31 O45 1.935 . S
Fe31 O51 2.077 . S
Fe31 O60 1.935 . S
O32 Fe31 1.886 . S
O32 Fe34 1.715 . S
Fe33 O35 1.886 . S
Fe33 O36 1.715 . S
Fe33 O43 1.935 . S
Fe33 O44 2.077 . S
Fe33 O50 1.935 . S
Fe33 O59 2.077 . S
Fe34 O32 1.715 . S
Fe34 O37 1.886 . S
Fe34 O41 1.935 . S
Fe34 O46 2.077 . S
Fe34 O52 1.935 . S
Fe34 O56 2.077 . S
O35 Fe31 1.715 . S
O35 Fe33 1.886 . S
O36 Fe33 1.715 . S
O36 Fe38 1.886 . S
O37 Fe34 1.886 . S
O37 Fe38 1.715 . S
Fe38 O36 1.886 . S
Fe38 O37 1.715 . S
Fe38 O42 2.077 . S
Fe38 O47 1.935 . S
Fe38 O49 2.077 . S
Fe38 O57 1.935 . S
C39 O51 1.381 . S
C39 O52 1.421 . S
O40 Fe31 2.077 . S
O40 C53 1.381 . S
O41 Fe34 1.935 . S
O41 C53 1.421 . S
O42 Fe38 2.077 . S
O42 C58 1.381 . S
O43 Fe33 1.935 . S
O43 C58 1.421 . S
O44 Fe33 2.077 . S
O44 C48 1.381 . S
O45 Fe31 1.935 . S
O45 C48 1.421 . S
O46 Fe34 2.077 . S
O46 C54 1.381 . S
O47 Fe38 1.935 . S
O47 C54 1.421 . S
C48 O44 1.381 . S
C48 O45 1.421 . S
O49 Fe38 2.077 . S
O49 C61 1.381 . S
O50 Fe33 1.935 . S
O50 C61 1.421 . S
O51 Fe31 2.077 . S
O51 C39 1.381 . S
O52 Fe34 1.935 . S
O52 C39 1.421 . S
C53 O40 1.381 . S
C53 O41 1.421 . S
C54 O46 1.381 . S
C54 O47 1.421 . S
C55 O56 1.381 . S
C55 O57 1.421 . S
O56 Fe34 2.077 . S
O56 C55 1.381 . S
O57 Fe38 1.935 . S
O57 C55 1.421 . S
C58 O42 1.381 . S
C58 O43 1.421 . S
O59 Fe33 2.077 . S
O59 C62 1.381 . S
O60 Fe31 1.935 . S
O60 C62 1.421 . S
C61 O49 1.381 . S
C61 O50 1.421 . S
C62 O59 1.381 . S
C62 O60 1.421 . S
H63 C69 0.930 . S
H64 C72 0.930 . S
H65 C73 0.930 . S
H66 C74 0.930 . S
H67 C77 0.930 . S
H68 C78 0.930 . S
C69 H63 0.930 . S
C69 C70 1.355 . S
C69 C71 1.415 . S
C70 C69 1.355 . S
C70 C72 1.419 . S
C71 C69 1.415 . S
C71 C76 1.425 . S
C71 C78 1.409 . S
C72 H64 0.930 . S
C72 C70 1.419 . S
C72 C73 1.362 . S
C73 H65 0.930 . S
C73 C72 1.362 . S
C73 C76 1.409 . S
C74 H66 0.930 . S
C74 C75 1.355 . S
C74 C76 1.415 . S
C75 C74 1.355 . S
C75 C77 1.419 . S
C76 C71 1.425 . S
C76 C73 1.409 . S
C76 C74 1.415 . S
C77 H67 0.930 . S
C77 C75 1.419 . S
C77 C78 1.362 . S
C78 H68 0.930 . S
C78 C71 1.409 . S
C78 C77 1.362 . S
H79 C85 0.930 . S
H80 C88 0.930 . S
H81 C89 0.930 . S
H82 C90 0.930 . S
H83 C93 0.930 . S
H84 C94 0.930 . S
C85 H79 0.930 . S
C85 C86 1.355 . S
C85 C87 1.415 . S
C86 C85 1.355 . S
C86 C88 1.419 . S
C87 C85 1.415 . S
C87 C92 1.425 . S
C87 C94 1.409 . S
C88 H80 0.930 . S
C88 C86 1.419 . S
C88 C89 1.362 . S
C89 H81 0.930 . S
C89 C88 1.362 . S
C89 C92 1.409 . S
C90 H82 0.930 . S
C90 C91 1.355 . S
C90 C92 1.415 . S
C91 C90 1.355 . S
C91 C93 1.419 . S
C92 C87 1.425 . S
C92 C89 1.409 . S
C92 C90 1.415 . S
C93 H83 0.930 . S
C93 C91 1.419 . S
C93 C94 1.362 . S
C94 H84 0.930 . S
C94 C87 1.409 . S
C94 C93 1.362 . S
H95 C101 0.930 . S
H96 C104 0.930 . S
H97 C105 0.930 . S
H98 C106 0.930 . S
H99 C109 0.930 . S
H100 C110 0.930 . S
C101 H95 0.930 . S
C101 C102 1.355 . S
C101 C103 1.415 . S
C102 C101 1.355 . S
C102 C104 1.419 . S
C103 C101 1.415 . S
C103 C108 1.425 . S
C103 C110 1.409 . S
C104 H96 0.930 . S
C104 C102 1.419 . S
C104 C105 1.362 . S
C105 H97 0.930 . S
C105 C104 1.362 . S
C105 C108 1.409 . S
C106 H98 0.930 . S
C106 C107 1.355 . S
C106 C108 1.415 . S
C107 C106 1.355 . S
C107 C109 1.419 . S
C108 C103 1.425 . S
C108 C105 1.409 . S
C108 C106 1.415 . S
C109 H99 0.930 . S
C109 C107 1.419 . S
C109 C110 1.362 . S
C110 H100 0.930 . S
C110 C103 1.409 . S
C110 C109 1.362 . S
H111 C117 0.930 . S
H112 C120 0.930 . S
H113 C121 0.930 . S
H114 C122 0.930 . S
H115 C125 0.930 . S
H116 C126 0.930 . S
C117 H111 0.930 . S
C117 C118 1.355 . S
C117 C119 1.415 . S
C118 C117 1.355 . S
C118 C120 1.419 . S
C119 C117 1.415 . S
C119 C124 1.425 . S
C119 C126 1.409 . S
C120 H112 0.930 . S
C120 C118 1.419 . S
C120 C121 1.362 . S
C121 H113 0.930 . S
C121 C120 1.362 . S
C121 C124 1.409 . S
C122 H114 0.930 . S
C122 C123 1.355 . S
C122 C124 1.415 . S
C123 C122 1.355 . S
C123 C125 1.419 . S
C124 C119 1.425 . S
C124 C121 1.409 . S
C124 C122 1.415 . S
C125 H115 0.930 . S
C125 C123 1.419 . S
C125 C126 1.362 . S
C126 H116 0.930 . S
C126 C119 1.409 . S
C126 C125 1.362 . S
H127 C133 0.930 . S
H128 C136 0.930 . S
H129 C137 0.930 . S
H130 C138 0.930 . S
H131 C141 0.930 . S
H132 C142 0.930 . S
C133 H127 0.930 . S
C133 C134 1.355 . S
C133 C135 1.415 . S
C134 C133 1.355 . S
C134 C136 1.419 . S
C135 C133 1.415 . S
C135 C140 1.425 . S
C135 C142 1.409 . S
C136 H128 0.930 . S
C136 C134 1.419 . S
C136 C137 1.362 . S
C137 H129 0.930 . S
C137 C136 1.362 . S
C137 C140 1.409 . S
C138 H130 0.930 . S
C138 C139 1.355 . S
C138 C140 1.415 . S
C139 C138 1.355 . S
C139 C141 1.419 . S
C140 C135 1.425 . S
C140 C137 1.409 . S
C140 C138 1.415 . S
C141 H131 0.930 . S
C141 C139 1.419 . S
C141 C142 1.362 . S
C142 H132 0.930 . S
C142 C135 1.409 . S
C142 C141 1.362 . S
H143 C149 0.930 . S
H144 C152 0.930 . S
H145 C153 0.930 . S
H146 C154 0.930 . S
H147 C157 0.930 . S
H148 C158 0.930 . S
C149 H143 0.930 . S
C149 C150 1.355 . S
C149 C151 1.415 . S
C150 C149 1.355 . S
C150 C152 1.419 . S
C151 C149 1.415 . S
C151 C156 1.425 . S
C151 C158 1.409 . S
C152 H144 0.930 . S
C152 C150 1.419 . S
C152 C153 1.362 . S
C153 H145 0.930 . S
C153 C152 1.362 . S
C153 C156 1.409 . S
C154 H146 0.930 . S
C154 C155 1.355 . S
C154 C156 1.415 . S
C155 C154 1.355 . S
C155 C157 1.419 . S
C156 C151 1.425 . S
C156 C153 1.409 . S
C156 C154 1.415 . S
C157 H147 0.930 . S
C157 C155 1.419 . S
C157 C158 1.362 . S
C158 H148 0.930 . S
C158 C151 1.409 . S
C158 C157 1.362 . S
H159 C165 0.930 . S
H160 C168 0.930 . S
H161 C169 0.930 . S
H162 C170 0.930 . S
H163 C173 0.930 . S
H164 C174 0.930 . S
C165 H159 0.930 . S
C165 C166 1.355 . S
C165 C167 1.415 . S
C166 C165 1.355 . S
C166 C168 1.419 . S
C167 C165 1.415 . S
C167 C172 1.425 . S
C167 C174 1.409 . S
C168 H160 0.930 . S
C168 C166 1.419 . S
C168 C169 1.362 . S
C169 H161 0.930 . S
C169 C168 1.362 . S
C169 C172 1.409 . S
C170 H162 0.930 . S
C170 C171 1.355 . S
C170 C172 1.415 . S
C171 C170 1.355 . S
C171 C173 1.419 . S
C172 C167 1.425 . S
C172 C169 1.409 . S
C172 C170 1.415 . S
C173 H163 0.930 . S
C173 C171 1.419 . S
C173 C174 1.362 . S
C174 H164 0.930 . S
C174 C167 1.409 . S
C174 C173 1.362 . S
H175 C181 0.930 . S
H176 C184 0.930 . S
H177 C185 0.930 . S
H178 C186 0.930 . S
H179 C189 0.930 . S
H180 C190 0.930 . S
C181 H175 0.930 . S
C181 C182 1.355 . S
C181 C183 1.415 . S
C182 C181 1.355 . S
C182 C184 1.419 . S
C183 C181 1.415 . S
C183 C188 1.425 . S
C183 C190 1.409 . S
C184 H176 0.930 . S
C184 C182 1.419 . S
C184 C185 1.362 . S
C185 H177 0.930 . S
C185 C184 1.362 . S
C185 C188 1.409 . S
C186 H178 0.930 . S
C186 C187 1.355 . S
C186 C188 1.415 . S
C187 C186 1.355 . S
C187 C189 1.419 . S
C188 C183 1.425 . S
C188 C185 1.409 . S
C188 C186 1.415 . S
C189 H179 0.930 . S
C189 C187 1.419 . S
C189 C190 1.362 . S
C190 H180 0.930 . S
C190 C183 1.409 . S
C190 C189 1.362 . S
C70 C10 1.216 . S
C75 C54 1.210 . S
C86 C0 1.503 . S
C91 C58 1.488 . S
C102 C18 1.511 . S
C107 C48 1.550 . S
C118 C27 1.571 . S
C123 C53 1.557 . S
C134 C24 1.527 . S
C139 C39 1.532 . S
C155 C55 1.521 . S
C150 C11 1.519 . S
C166 C1 1.599 . S
C171 C61 1.592 . S
C187 C62 1.210 . S
C182 C2 1.176 . S
