# Generated by pormake.
# Topology ssa, (4,4)-cn, num edge types: 1
# Building blocks:
#     Node 0, Type 0, BuildingBlock: NAWXER_clean_sbu_0, # of connection points: 4
#     Node 1, Type 0, BuildingBlock: NAWXER_clean_sbu_0, # of connection points: 4
#     Node 2, Type 0, BuildingBlock: NAWXER_clean_sbu_0, # of connection points: 4
#     Node 3, Type 0, BuildingBlock: NAWXER_clean_sbu_0, # of connection points: 4
#     Node 4, Type 0, BuildingBlock: NAWXER_clean_sbu_0, # of connection points: 4
#     Node 5, Type 0, BuildingBlock: NAWXER_clean_sbu_0, # of connection points: 4
#     Node 6, Type 1, BuildingBlock: NAWXER_clean_sbu_0, # of connection points: 4
#     Node 7, Type 1, BuildingBlock: NAWXER_clean_sbu_0, # of connection points: 4
#     Node 8, Type 1, BuildingBlock: NAWXER_clean_sbu_0, # of connection points: 4
#     Node 9, Type 1, BuildingBlock: NAWXER_clean_sbu_0, # of connection points: 4
#     Node 10, Type 1, BuildingBlock: NAWXER_clean_sbu_0, # of connection points: 4
#     Node 11, Type 1, BuildingBlock: NAWXER_clean_sbu_0, # of connection points: 4
#     Edge 12, Type (0, 1), None
#     Edge 13, Type (0, 1), None
#     Edge 14, Type (0, 1), None
#     Edge 15, Type (0, 1), None
#     Edge 16, Type (0, 1), None
#     Edge 17, Type (0, 1), None
#     Edge 18, Type (0, 1), None
#     Edge 19, Type (0, 1), None
#     Edge 20, Type (0, 1), None
#     Edge 21, Type (0, 1), None
#     Edge 22, Type (0, 1), None
#     Edge 23, Type (0, 1), None
#     Edge 24, Type (0, 1), None
#     Edge 25, Type (0, 1), None
#     Edge 26, Type (0, 1), None
#     Edge 27, Type (0, 1), None
#     Edge 28, Type (0, 1), None
#     Edge 29, Type (0, 1), None
#     Edge 30, Type (0, 1), None
#     Edge 31, Type (0, 1), None
#     Edge 32, Type (0, 1), None
#     Edge 33, Type (0, 1), None
#     Edge 34, Type (0, 1), None
#     Edge 35, Type (0, 1), None
# Relax obj value: 0.024
# Max RMSD: 0.040
# Mean RMSD: 0.033
data_MOF--net-ssa--node1-NAWXER_clean_sbu_0--node2-NAWXER_clean_sbu_0--edge1-none
_symmetry_space_group_name_H-M    P1
_symmetry_Int_Tables_number       1
_symmetry_cell_setting            triclinic
loop_
_symmetry_equiv_pos_as_xyz
'x, y, z'
_cell_length_a     17.603787
_cell_length_b     17.599015
_cell_length_c     16.944215
_cell_angle_alpha  89.999896
_cell_angle_beta   89.999673
_cell_angle_gamma 119.95114
loop_
_atom_site_label
_atom_site_type_symbol
_atom_site_fract_x
_atom_site_fract_y
_atom_site_fract_z
_atom_type_partial_charge
C0 C 0.09351 0.69665 0.09418 0.0
C1 C 0.96224 0.44045 0.91687 0.0
O2 O 1.01823 0.62983 0.10668 0.0
Zn3 Zn 1.02466 0.56179 0.01711 0.0
O4 O 0.14005 0.69668 0.03649 0.0
Zn5 Zn 0.14289 0.62077 0.94277 0.0
O6 O 0.14932 0.69519 0.85314 0.0
O7 O 1.02756 0.64052 0.92339 0.0
O8 O 1.04203 0.49677 0.90071 0.0
O9 O 0.92675 0.44984 0.97885 0.0
O10 O 0.12548 0.53852 0.05923 0.0
O11 O 0.24077 0.6066 -0.01893 0.0
C12 C 1.07408 0.68691 0.86566 0.0
C13 C 0.20526 0.56184 0.04308 0.0
C14 C 0.45233 0.06532 0.59473 0.0
C15 C 0.57735 0.93401 0.41736 0.0
O16 O 0.44409 0.99008 0.60734 0.0
Zn17 Zn 0.51843 0.99641 0.51768 0.0
O18 O 0.49869 0.11179 0.53697 0.0
Zn19 Zn 0.57735 0.11464 0.44326 0.0
O20 O 0.50922 0.12095 0.35371 0.0
O21 O 0.44249 0.99917 0.424 0.0
O22 O 0.60063 1.01379 0.4012 0.0
O23 O 0.53261 0.89849 0.47938 0.0
O24 O 0.64244 0.09732 0.55963 0.0
O25 O 0.68929 0.2126 0.48148 0.0
C26 C 0.44244 1.04566 0.36629 0.0
C27 C 0.69873 0.17711 0.54344 0.0
C28 C 0.45299 0.41552 0.86587 0.0
C29 C 0.57789 0.67163 0.04322 0.0
O30 O 0.44465 0.48247 0.85332 0.0
Zn31 Zn 0.51911 0.55042 0.94289 0.0
O32 O 0.49949 0.4154 0.92353 0.0
Zn33 Zn 0.5782 0.49115 0.01723 0.0
O34 O 0.51019 0.41667 0.10678 0.0
O35 O 0.44331 0.47172 0.03659 0.0
O36 O 0.6013 0.61519 0.05936 0.0
O37 O 0.53314 0.66241 -0.0188 0.0
O38 O 0.6431 0.57342 0.9008 0.0
O39 O 0.69014 0.50509 0.97895 0.0
C40 C 0.44334 0.42516 0.09424 0.0
C41 C 0.69945 0.54992 0.91696 0.0
C42 C 0.20504 0.67064 0.4169 0.0
C43 C 1.07373 0.41434 0.59415 0.0
O44 O 0.24054 0.66123 0.47887 0.0
Zn45 Zn 0.14263 0.54927 0.51712 0.0
O46 O 0.12525 0.61432 0.40075 0.0
Zn47 Zn 1.02441 0.4903 0.44277 0.0
O48 O 0.92652 0.50449 0.48107 0.0
O49 O 1.04182 0.57258 0.5592 0.0
O50 O 1.02722 0.41435 0.53645 0.0
O51 O 0.14898 0.4812 0.6067 0.0
O52 O 0.13975 0.47054 0.42341 0.0
O53 O 1.01804 0.41594 0.35311 0.0
C54 C 0.96205 0.54927 0.54307 0.0
C55 C 0.09325 0.42414 0.36568 0.0
C56 C 0.71467 1.0462 0.09473 0.0
C57 C 0.58966 0.17745 0.91733 0.0
O58 O 0.72293 0.12145 0.10729 0.0
Zn59 Zn 0.64853 0.11503 0.01766 0.0
O60 O 0.66828 0.99969 0.037 0.0
Zn61 Zn 0.58959 0.99679 0.94328 0.0
O62 O 0.65766 0.99038 0.85373 0.0
O63 O 0.72443 0.11222 0.92394 0.0
O64 O 0.56636 0.09766 0.90118 0.0
O65 O 0.63437 0.21295 0.97937 0.0
O66 O 0.52455 1.01411 0.05968 0.0
O67 O 0.47767 0.89884 -0.01849 0.0
C68 C 0.72444 0.06568 0.86626 0.0
C69 C 0.46826 0.93431 0.04349 0.0
C70 C 0.72433 0.68656 0.59421 0.0
C71 C 0.46811 0.56178 0.417 0.0
O72 O 0.65747 0.69503 0.60681 0.0
Zn73 Zn 0.5894 0.6206 0.51726 0.0
O74 O 0.72432 0.64001 0.53654 0.0
Zn75 Zn 0.64848 0.56133 0.44287 0.0
O76 O 0.72289 0.62933 0.35328 0.0
O77 O 0.66809 0.69637 0.42357 0.0
O78 O 0.52447 0.53829 0.40085 0.0
O79 O 0.47745 0.60665 0.47898 0.0
O80 O 0.56627 0.49654 0.55933 0.0
O81 O 0.63444 0.44932 0.48118 0.0
C82 C 0.71456 0.69628 0.36587 0.0
C83 C 0.58966 0.44009 0.54319 0.0
C84 C 0.40347 0.54906 0.35541 0.0
C85 C 0.25714 0.54913 0.10475 0.0
O86 O 0.35363 0.47197 0.32727 0.0
Zn87 Zn 0.26172 0.41139 0.22996 0.0
O88 O 0.40981 0.6153 0.31909 0.0
Zn89 Zn 0.33281 0.5543 0.23012 0.0
O90 O 0.21107 0.49454 0.28439 0.0
O91 O 0.14779 0.35005 0.28532 0.0
O92 O 0.31664 0.61538 0.14129 0.0
O93 O 0.2302 0.472 0.1327 0.0
O94 O 0.31482 0.3505 0.1745 0.0
O95 O 0.39527 0.49505 0.17561 0.0
C96 C 0.14628 0.41977 0.30238 0.0
C97 C 0.38574 0.42045 0.15747 0.0
C98 C 1.02075 0.35697 0.65745 0.0
C99 C 0.78191 0.11857 0.80298 0.0
O100 O 0.95593 0.36694 0.67552 0.0
Zn101 Zn 0.83434 0.30508 0.73011 0.0
O102 O 1.01942 0.28584 0.67459 0.0
Zn103 Zn 0.90561 0.23336 0.73016 0.0
O104 O 0.81343 0.20187 0.63302 0.0
O105 O 0.75707 0.28892 0.64131 0.0
O106 O 0.85283 0.11954 0.78578 0.0
O107 O 0.7722 0.18355 0.78483 0.0
O108 O 0.85066 0.38247 0.81884 0.0
O109 O 0.93728 0.32563 0.82731 0.0
C110 C 0.76343 0.22903 0.60498 0.0
C111 C 0.91033 0.37584 0.85527 0.0
C112 C 0.59013 0.88215 0.35571 0.0
C113 C 0.59048 0.73616 0.10489 0.0
O114 O 0.66725 0.90927 0.3277 0.0
Zn115 Zn 0.72797 0.87798 0.23041 0.0
O116 O 0.52396 0.82252 0.31921 0.0
Zn117 Zn 0.58508 0.80654 0.23029 0.0
O118 O 0.64456 0.7442 0.28456 0.0
O119 O 0.78902 0.82499 0.28578 0.0
O120 O 0.52419 0.72957 0.14128 0.0
O121 O 0.66753 0.78613 0.13301 0.0
O122 O 0.78905 0.99199 0.1751 0.0
O123 O 0.64456 0.9283 0.17602 0.0
C124 C 0.71921 0.75387 0.30264 0.0
C125 C 0.71921 0.99323 0.15801 0.0
C126 C 1.02115 0.69141 0.80233 0.0
C127 C 0.78192 0.69118 0.65742 0.0
O128 O 0.95627 0.6167 0.78435 0.0
Zn129 Zn 0.83456 0.55711 0.73003 0.0
O130 O 1.01982 0.76122 0.78523 0.0
Zn131 Zn 0.90588 0.70003 0.72986 0.0
O132 O 0.81396 0.63958 0.82719 0.0
O133 O 0.75753 0.49622 0.819 0.0
O134 O 0.85293 0.76106 0.67439 0.0
O135 O 0.77225 0.61653 0.67556 0.0
O136 O 0.8506 0.49592 0.64121 0.0
O137 O 0.93727 0.63926 0.63263 0.0
C138 C 0.76402 0.56252 0.85533 0.0
C139 C 0.91021 0.5621 0.60469 0.0
C140 C 0.40364 0.88235 0.10507 0.0
C141 C 0.25691 0.73535 0.35535 0.0
O142 O 0.35353 0.90938 0.13311 0.0
Zn143 Zn 0.26134 0.87773 0.23028 0.0
O144 O 0.41016 0.82255 0.14141 0.0
Zn145 Zn 0.33286 0.80625 0.2302 0.0
O146 O 0.2113 0.74423 0.17559 0.0
O147 O 0.14753 0.82508 0.1747 0.0
O148 O 0.31668 0.72889 0.31893 0.0
O149 O 0.22983 0.78545 0.3274 0.0
O150 O 0.31397 0.99155 0.28589 0.0
O151 O 0.39484 0.9278 0.28489 0.0
C152 C 0.14638 0.75405 0.15751 0.0
C153 C 0.38499 0.99269 0.30303 0.0
C154 C 0.44826 0.35791 0.80262 0.0
C155 C 0.44787 0.11835 0.65799 0.0
O156 O 0.52287 0.36746 0.78453 0.0
Zn157 Zn 0.5822 0.30499 0.73022 0.0
O158 O 0.37838 0.28687 0.7857 0.0
Zn159 Zn 0.43931 0.23376 0.73032 0.0
O160 O 0.4999 0.20235 0.82764 0.0
O161 O 0.64322 0.28891 0.81915 0.0
O162 O 0.3781 0.11974 0.67502 0.0
O163 O 0.52257 0.18321 0.676 0.0
O164 O 0.64319 0.38194 0.64122 0.0
O165 O 0.49988 0.32561 0.63295 0.0
C166 C 0.57699 0.22935 0.85566 0.0
C167 C 0.57695 0.37548 0.60483 0.0
loop_
_geom_bond_atom_site_label_1
_geom_bond_atom_site_label_2
_geom_bond_distance
_geom_bond_site_symmetry_2
_ccdc_geom_bond_type
C0 O2 1.258 . S
C0 O4 1.258 . S
C1 O8 1.255 . S
C1 O9 1.258 . S
O2 C0 1.258 . S
O2 Zn3 2.025 1_455 S
Zn3 O2 2.025 1_655 S
Zn3 O7 2.035 1_554 S
Zn3 O9 2.035 1_554 S
Zn3 O10 2.014 1_655 S
O4 C0 1.258 . S
O4 Zn5 2.035 1_554 S
Zn5 O4 2.035 1_556 S
Zn5 O6 2.017 1_455 S
Zn5 O8 2.026 1_455 S
Zn5 O11 2.035 1_556 S
O6 Zn5 2.017 1_655 S
O6 C12 1.259 . S
O7 Zn3 2.035 1_556 S
O7 C12 1.258 . S
O8 C1 1.255 . S
O8 Zn5 2.026 1_655 S
O9 C1 1.258 . S
O9 Zn3 2.035 1_556 S
O10 Zn3 2.014 1_455 S
O10 C13 1.262 . S
O11 Zn5 2.035 1_554 S
O11 C13 1.258 . S
C12 O6 1.259 . S
C12 O7 1.258 . S
C13 O10 1.262 . S
C13 O11 1.258 . S
C14 O16 1.262 . S
C14 O18 1.258 . S
C15 O22 1.259 . S
C15 O23 1.258 . S
O16 C14 1.262 . S
O16 Zn17 2.014 1_545 S
Zn17 O16 2.014 1_565 S
Zn17 O21 2.035 . S
Zn17 O23 2.035 . S
Zn17 O24 2.025 1_565 S
O18 C14 1.258 . S
O18 Zn19 2.035 . S
Zn19 O18 2.035 . S
Zn19 O20 2.026 1_545 S
Zn19 O22 2.017 1_545 S
Zn19 O25 2.035 . S
O20 Zn19 2.026 1_565 S
O20 C26 1.255 . S
O21 Zn17 2.035 . S
O21 C26 1.258 . S
O22 C15 1.259 . S
O22 Zn19 2.017 1_565 S
O23 C15 1.258 . S
O23 Zn17 2.035 . S
O24 Zn17 2.025 1_545 S
O24 C27 1.258 . S
O25 Zn19 2.035 . S
O25 C27 1.258 . S
C26 O20 1.255 . S
C26 O21 1.258 . S
C27 O24 1.258 . S
C27 O25 1.258 . S
C28 O30 1.247 . S
C28 O32 1.258 . S
C29 O36 1.247 . S
C29 O37 1.258 . S
O30 C28 1.247 . S
O30 Zn31 2.028 . S
Zn31 O30 2.028 . S
Zn31 O35 2.035 1_556 S
Zn31 O37 2.035 1_556 S
Zn31 O38 2.028 . S
O32 C28 1.258 . S
O32 Zn33 2.035 1_556 S
Zn33 O32 2.035 1_554 S
Zn33 O34 2.028 . S
Zn33 O36 2.028 . S
Zn33 O39 2.035 1_554 S
O34 Zn33 2.028 . S
O34 C40 1.247 . S
O35 Zn31 2.035 1_554 S
O35 C40 1.258 . S
O36 C29 1.247 . S
O36 Zn33 2.028 . S
O37 C29 1.258 . S
O37 Zn31 2.035 1_554 S
O38 Zn31 2.028 . S
O38 C41 1.247 . S
O39 Zn33 2.035 1_556 S
O39 C41 1.258 . S
C40 O34 1.247 . S
C40 O35 1.258 . S
C41 O38 1.247 . S
C41 O39 1.258 . S
C42 O44 1.247 . S
C42 O46 1.258 . S
C43 O50 1.247 . S
C43 O51 1.268 . S
O44 C42 1.247 . S
O44 Zn45 2.028 . S
Zn45 O44 2.028 . S
Zn45 O49 2.023 1_455 S
Zn45 O51 2.033 1_455 S
Zn45 O52 2.028 . S
O46 C42 1.258 . S
O46 Zn47 2.035 1_455 S
Zn47 O46 2.035 1_655 S
Zn47 O48 2.028 . S
Zn47 O50 2.028 . S
Zn47 O53 2.035 1_655 S
O48 Zn47 2.028 . S
O48 C54 1.247 . S
O49 Zn45 2.023 1_655 S
O49 C54 1.272 . S
O50 C43 1.247 . S
O50 Zn47 2.028 . S
O51 C43 1.268 . S
O51 Zn45 2.033 1_655 S
O52 Zn45 2.028 . S
O52 C55 1.247 . S
O53 Zn47 2.035 1_455 S
O53 C55 1.258 . S
C54 O48 1.247 . S
C54 O49 1.272 . S
C55 O52 1.247 . S
C55 O53 1.258 . S
C56 O58 1.259 . S
C56 O60 1.258 . S
C57 O64 1.262 . S
C57 O65 1.258 . S
O58 C56 1.259 . S
O58 Zn59 2.017 1_565 S
Zn59 O58 2.017 1_545 S
Zn59 O63 2.035 1_554 S
Zn59 O65 2.035 1_554 S
Zn59 O66 2.026 1_545 S
O60 C56 1.258 . S
O60 Zn61 2.035 1_554 S
Zn61 O60 2.035 1_556 S
Zn61 O62 2.025 1_565 S
Zn61 O64 2.014 1_565 S
Zn61 O67 2.035 1_556 S
O62 Zn61 2.025 1_545 S
O62 C68 1.258 . S
O63 Zn59 2.035 1_556 S
O63 C68 1.258 . S
O64 C57 1.262 . S
O64 Zn61 2.014 1_545 S
O65 C57 1.258 . S
O65 Zn59 2.035 1_556 S
O66 Zn59 2.026 1_565 S
O66 C69 1.255 . S
O67 Zn61 2.035 1_554 S
O67 C69 1.258 . S
C68 O62 1.258 . S
C68 O63 1.258 . S
C69 O66 1.255 . S
C69 O67 1.258 . S
C70 O72 1.247 . S
C70 O74 1.258 . S
C71 O78 1.247 . S
C71 O79 1.258 . S
O72 C70 1.247 . S
O72 Zn73 2.028 . S
Zn73 O72 2.028 . S
Zn73 O77 2.035 . S
Zn73 O79 2.035 . S
Zn73 O80 2.028 . S
O74 C70 1.258 . S
O74 Zn75 2.035 . S
Zn75 O74 2.035 . S
Zn75 O76 2.028 . S
Zn75 O78 2.028 . S
Zn75 O81 2.035 . S
O76 Zn75 2.028 . S
O76 C82 1.247 . S
O77 Zn73 2.035 . S
O77 C82 1.258 . S
O78 C71 1.247 . S
O78 Zn75 2.028 . S
O79 C71 1.258 . S
O79 Zn73 2.035 . S
O80 Zn73 2.028 . S
O80 C83 1.247 . S
O81 Zn75 2.035 . S
O81 C83 1.258 . S
C82 O76 1.247 . S
C82 O77 1.258 . S
C83 O80 1.247 . S
C83 O81 1.258 . S
C84 O86 1.247 . S
C84 O88 1.258 . S
C85 O92 1.247 . S
C85 O93 1.258 . S
O86 C84 1.247 . S
O86 Zn87 2.028 . S
Zn87 O86 2.028 . S
Zn87 O91 2.035 . S
Zn87 O93 2.035 . S
Zn87 O94 2.028 . S
O88 C84 1.258 . S
O88 Zn89 2.035 . S
Zn89 O88 2.035 . S
Zn89 O90 2.028 . S
Zn89 O92 2.028 . S
Zn89 O95 2.035 . S
O90 Zn89 2.028 . S
O90 C96 1.247 . S
O91 Zn87 2.035 . S
O91 C96 1.258 . S
O92 C85 1.247 . S
O92 Zn89 2.028 . S
O93 C85 1.258 . S
O93 Zn87 2.035 . S
O94 Zn87 2.028 . S
O94 C97 1.247 . S
O95 Zn89 2.035 . S
O95 C97 1.258 . S
C96 O90 1.247 . S
C96 O91 1.258 . S
C97 O94 1.247 . S
C97 O95 1.258 . S
C98 O100 1.247 . S
C98 O102 1.258 . S
C99 O106 1.247 . S
C99 O107 1.258 . S
O100 C98 1.247 . S
O100 Zn101 2.028 . S
Zn101 O100 2.028 . S
Zn101 O105 2.035 . S
Zn101 O107 2.035 . S
Zn101 O108 2.028 . S
O102 C98 1.258 . S
O102 Zn103 2.035 . S
Zn103 O102 2.035 . S
Zn103 O104 2.028 . S
Zn103 O106 2.028 . S
Zn103 O109 2.035 . S
O104 Zn103 2.028 . S
O104 C110 1.247 . S
O105 Zn101 2.035 . S
O105 C110 1.258 . S
O106 C99 1.247 . S
O106 Zn103 2.028 . S
O107 C99 1.258 . S
O107 Zn101 2.035 . S
O108 Zn101 2.028 . S
O108 C111 1.247 . S
O109 Zn103 2.035 . S
O109 C111 1.258 . S
C110 O104 1.247 . S
C110 O105 1.258 . S
C111 O108 1.247 . S
C111 O109 1.258 . S
C112 O114 1.247 . S
C112 O116 1.258 . S
C113 O120 1.247 . S
C113 O121 1.258 . S
O114 C112 1.247 . S
O114 Zn115 2.028 . S
Zn115 O114 2.028 . S
Zn115 O119 2.035 . S
Zn115 O121 2.035 . S
Zn115 O122 2.028 . S
O116 C112 1.258 . S
O116 Zn117 2.035 . S
Zn117 O116 2.035 . S
Zn117 O118 2.028 . S
Zn117 O120 2.028 . S
Zn117 O123 2.035 . S
O118 Zn117 2.028 . S
O118 C124 1.247 . S
O119 Zn115 2.035 . S
O119 C124 1.258 . S
O120 C113 1.247 . S
O120 Zn117 2.028 . S
O121 C113 1.258 . S
O121 Zn115 2.035 . S
O122 Zn115 2.028 . S
O122 C125 1.247 . S
O123 Zn117 2.035 . S
O123 C125 1.258 . S
C124 O118 1.247 . S
C124 O119 1.258 . S
C125 O122 1.247 . S
C125 O123 1.258 . S
C126 O128 1.247 . S
C126 O130 1.258 . S
C127 O134 1.247 . S
C127 O135 1.258 . S
O128 C126 1.247 . S
O128 Zn129 2.028 . S
Zn129 O128 2.028 . S
Zn129 O133 2.035 . S
Zn129 O135 2.035 . S
Zn129 O136 2.028 . S
O130 C126 1.258 . S
O130 Zn131 2.035 . S
Zn131 O130 2.035 . S
Zn131 O132 2.028 . S
Zn131 O134 2.028 . S
Zn131 O137 2.035 . S
O132 Zn131 2.028 . S
O132 C138 1.247 . S
O133 Zn129 2.035 . S
O133 C138 1.258 . S
O134 C127 1.247 . S
O134 Zn131 2.028 . S
O135 C127 1.258 . S
O135 Zn129 2.035 . S
O136 Zn129 2.028 . S
O136 C139 1.247 . S
O137 Zn131 2.035 . S
O137 C139 1.258 . S
C138 O132 1.247 . S
C138 O133 1.258 . S
C139 O136 1.247 . S
C139 O137 1.258 . S
C140 O142 1.247 . S
C140 O144 1.258 . S
C141 O148 1.247 . S
C141 O149 1.258 . S
O142 C140 1.247 . S
O142 Zn143 2.028 . S
Zn143 O142 2.028 . S
Zn143 O147 2.035 . S
Zn143 O149 2.035 . S
Zn143 O150 2.028 . S
O144 C140 1.258 . S
O144 Zn145 2.035 . S
Zn145 O144 2.035 . S
Zn145 O146 2.028 . S
Zn145 O148 2.028 . S
Zn145 O151 2.035 . S
O146 Zn145 2.028 . S
O146 C152 1.247 . S
O147 Zn143 2.035 . S
O147 C152 1.258 . S
O148 C141 1.247 . S
O148 Zn145 2.028 . S
O149 C141 1.258 . S
O149 Zn143 2.035 . S
O150 Zn143 2.028 . S
O150 C153 1.247 . S
O151 Zn145 2.035 . S
O151 C153 1.258 . S
C152 O146 1.247 . S
C152 O147 1.258 . S
C153 O150 1.247 . S
C153 O151 1.258 . S
C154 O156 1.247 . S
C154 O158 1.258 . S
C155 O162 1.247 . S
C155 O163 1.258 . S
O156 C154 1.247 . S
O156 Zn157 2.028 . S
Zn157 O156 2.028 . S
Zn157 O161 2.035 . S
Zn157 O163 2.035 . S
Zn157 O164 2.028 . S
O158 C154 1.258 . S
O158 Zn159 2.035 . S
Zn159 O158 2.035 . S
Zn159 O160 2.028 . S
Zn159 O162 2.028 . S
Zn159 O165 2.035 . S
O160 Zn159 2.028 . S
O160 C166 1.247 . S
O161 Zn157 2.035 . S
O161 C166 1.258 . S
O162 C155 1.247 . S
O162 Zn159 2.028 . S
O163 C155 1.258 . S
O163 Zn157 2.035 . S
O164 Zn157 2.028 . S
O164 C167 1.247 . S
O165 Zn159 2.035 . S
O165 C167 1.258 . S
C166 O160 1.247 . S
C166 O161 1.258 . S
C167 O164 1.247 . S
C167 O165 1.258 . S
C13 C85 1.776 . S
C27 C110 1.784 . S
C113 C29 1.777 . S
C139 C54 1.780 . S
C140 C69 1.782 . S
C167 C83 1.778 . S
C15 C112 1.785 . S
C41 C138 1.784 . S
C141 C42 1.779 . S
C166 C57 1.783 . S
C71 C84 1.784 . S
C111 C1 1.778 . S
C126 C12 1.780 . S
C26 C153 1.783 . S
C154 C28 1.778 . S
C55 C96 1.777 . S
C68 C99 1.785 . S
C82 C124 1.778 . S
C14 C155 1.782 . S
C97 C40 1.783 . S
C43 C98 1.778 . S
C56 C125 1.784 . S
C70 C127 1.784 . S
C0 C152 1.777 . S
