# Generated by pormake.
# Topology pts, (4,4)-cn, num edge types: 1
# Building blocks:
#     Node 0, Type 0, BuildingBlock: NAWXER_clean_sbu_0, # of connection points: 4
#     Node 1, Type 0, BuildingBlock: NAWXER_clean_sbu_0, # of connection points: 4
#     Node 2, Type 1, BuildingBlock: AZAVOO_clean_sbu_0, # of connection points: 4
#     Node 3, Type 1, BuildingBlock: AZAVOO_clean_sbu_0, # of connection points: 4
#     Edge 4, Type (0, 1), BuildingBlock: XIVTED_clean_linker_0, # of connection points: 2
#     Edge 5, Type (0, 1), BuildingBlock: XIVTED_clean_linker_0, # of connection points: 2
#     Edge 6, Type (0, 1), BuildingBlock: XIVTED_clean_linker_0, # of connection points: 2
#     Edge 7, Type (0, 1), BuildingBlock: XIVTED_clean_linker_0, # of connection points: 2
#     Edge 8, Type (0, 1), BuildingBlock: XIVTED_clean_linker_0, # of connection points: 2
#     Edge 9, Type (0, 1), BuildingBlock: XIVTED_clean_linker_0, # of connection points: 2
#     Edge 10, Type (0, 1), BuildingBlock: XIVTED_clean_linker_0, # of connection points: 2
#     Edge 11, Type (0, 1), BuildingBlock: XIVTED_clean_linker_0, # of connection points: 2
# Relax obj value: 0.010
# Max RMSD: 0.058
# Mean RMSD: 0.046
data_MOF--net-pts--node1-NAWXER_clean_sbu_0--node2-AZAVOO_clean_sbu_0--edge1-XIVTED_clean_linker_0
_symmetry_space_group_name_H-M    P1
_symmetry_Int_Tables_number       1
_symmetry_cell_setting            triclinic
loop_
_symmetry_equiv_pos_as_xyz
'x, y, z'
_cell_length_a     22.856893
_cell_length_b     23.905508
_cell_length_c     38.143054
_cell_angle_alpha  89.85066
_cell_angle_beta   96.332717
_cell_angle_gamma 89.887326
loop_
_atom_site_label
_atom_site_type_symbol
_atom_site_fract_x
_atom_site_fract_y
_atom_site_fract_z
_atom_type_partial_charge
C0 C 0.47431 0.0694 0.95729 0.0
C1 C 0.63693 0.07501 0.05214 0.0
O2 O 0.49438 0.02136 0.96751 0.0
Zn3 Zn 0.55701 0.98554 0.00642 0.0
O4 O 0.49454 0.11347 0.97285 0.0
Zn5 Zn 0.55276 0.07579 0.00635 0.0
O6 O 0.61148 0.03893 0.97233 0.0
O7 O 0.60736 0.94676 0.97671 0.0
O8 O 0.60765 0.11727 0.03963 0.0
O9 O 0.62162 0.02574 0.04186 0.0
O10 O 0.50866 0.945 0.03721 0.0
O11 O 0.49771 0.03636 0.04014 0.0
C12 C 0.62856 0.99028 0.96348 0.0
C13 C 0.48421 0.98718 0.04978 0.0
C14 C 0.00653 0.58582 0.45685 0.0
C15 C 0.01576 0.44491 0.54986 0.0
O16 O 0.96356 0.56618 0.47143 0.0
Zn17 Zn 0.00951 0.51567 0.50358 0.0
O18 O 0.05922 0.57045 0.46757 0.0
Zn19 Zn 0.10358 0.51635 0.50656 0.0
O20 O 0.1446 0.46584 0.47801 0.0
O21 O 0.0477 0.45936 0.46865 0.0
O22 O 0.0666 0.46044 0.5423 0.0
O23 O 0.96957 0.4653 0.53287 0.0
O24 O 0.05274 0.57102 0.54192 0.0
O25 O 0.14849 0.56794 0.53812 0.0
C26 C 0.0989 0.44431 0.46136 0.0
C27 C 0.10511 0.58721 0.55249 0.0
Mg28 Mg 0.09821 0.98848 0.27674 0.0
O29 O 0.0134 0.01208 0.24095 0.0
O30 O 0.94089 0.01967 0.27562 0.0
Mg31 Mg 0.97724 -8e-05 0.33231 0.0
C32 C 0.9598 0.02263 0.24541 0.0
C33 C 0.1905 0.96425 0.22693 0.0
O34 O 0.19004 0.91918 0.24667 0.0
O35 O 0.10583 0.0788 0.29684 0.0
O36 O 0.03134 0.08001 0.33049 0.0
O37 O 0.07753 0.89744 0.27154 0.0
O38 O 0.04836 0.95124 0.31314 0.0
C39 C 0.07422 0.10377 0.31762 0.0
C40 C 0.04882 0.90266 0.29874 0.0
O41 O 0.15595 0.00443 0.23234 0.0
Mg42 Mg 0.00952 0.98843 0.73447 0.0
O43 O 0.09761 0.00887 0.76825 0.0
O44 O 0.16673 0.00941 0.73099 0.0
Mg45 Mg 0.1252 -0.00536 0.67492 0.0
C46 C 0.15119 0.01438 0.76197 0.0
C47 C 0.92009 0.96609 0.78536 0.0
O48 O 0.91871 0.92229 0.76456 0.0
O49 O 1.00365 0.07903 0.71451 0.0
O50 O 0.0755 0.07704 0.67902 0.0
O51 O 0.02747 0.8965 0.73926 0.0
O52 O 0.05464 0.94918 0.69648 0.0
C53 C 0.03492 0.10274 0.693 0.0
C54 C 0.05411 0.90076 0.71119 0.0
O55 O 0.95543 0.00573 0.78038 0.0
H56 H 0.45013 0.89168 0.08294 0.0
H57 H 0.21171 0.05385 0.18484 0.0
H58 H 0.41638 0.06922 0.07406 0.0
H59 H 0.2625 0.88205 0.20626 0.0
H60 H 0.2816 0.05814 0.14072 0.0
H61 H 0.37661 0.88506 0.12509 0.0
C62 C 0.42729 0.92916 0.08977 0.0
C63 C 0.4397 0.98106 0.07502 0.0
C64 C 0.2774 0.01947 0.15506 0.0
C65 C 0.3555 0.97384 0.12301 0.0
C66 C 0.2374 0.01701 0.18022 0.0
C67 C 0.23136 0.96763 0.19941 0.0
C68 C 0.31145 0.97214 0.14889 0.0
C69 C 0.26584 0.92113 0.19223 0.0
C70 C 0.3854 0.92541 0.11385 0.0
C71 C 0.40863 0.0283 0.08484 0.0
N72 N 0.30437 0.92452 0.16759 0.0
N73 N 0.3681 0.02353 0.10813 0.0
H74 H 0.10255 0.41601 0.60103 0.0
H75 H 0.93017 0.1562 0.67232 0.0
H76 H 0.92146 0.37961 0.56377 0.0
H77 H 0.11773 0.18187 0.68947 0.0
H78 H 0.91934 0.24861 0.6434 0.0
H79 H 0.10145 0.34162 0.64438 0.0
C80 C 0.06236 0.3924 0.60204 0.0
C81 C 0.01236 0.40328 0.57825 0.0
C82 C 0.96264 0.23434 0.65415 0.0
C83 C 0.01091 0.31735 0.62795 0.0
C84 C 0.96872 0.18201 0.67085 0.0
C85 C 0.02495 0.16166 0.68294 0.0
C86 C 0.01316 0.26616 0.65007 0.0
C87 C 0.07369 0.19607 0.68017 0.0
C88 C 0.06171 0.34993 0.62692 0.0
C89 C 0.96116 0.37211 0.58139 0.0
N90 N 0.06671 0.24638 0.66385 0.0
N91 N 0.96195 0.32985 0.6055 0.0
H92 H 0.65652 0.14563 0.10916 0.0
H93 H 0.96877 0.00591 0.17501 0.0
H94 H 0.73754 0.01586 0.05265 0.0
H95 H 0.85538 0.07837 0.24616 0.0
H96 H 0.89531 0.02951 0.1254 0.0
H97 H 0.7411 0.1417 0.15527 0.0
C98 C 0.69263 0.11726 0.10617 0.0
C99 C 0.69011 0.08065 0.07743 0.0
C100 C 0.88685 0.04057 0.1519 0.0
C101 C 0.78622 0.07612 0.12937 0.0
C102 C 0.92872 0.02716 0.18018 0.0
C103 C 0.91781 0.03941 0.21481 0.0
C104 C 0.83414 0.06712 0.15826 0.0
C105 C 0.8652 0.06729 0.21993 0.0
C106 C 0.7405 0.11473 0.13246 0.0
C107 C 0.73768 0.04432 0.07472 0.0
N108 N 0.82524 0.08009 0.19198 0.0
N109 N 0.78369 0.04286 0.10038 0.0
H110 H 0.18563 0.67246 0.56223 0.0
H111 H 0.04302 0.79105 0.72949 0.0
H112 H 0.0429 0.59372 0.60864 0.0
H113 H 0.12125 0.89727 0.65579 0.0
H114 H 0.0698 0.7093 0.69625 0.0
H115 H 0.18791 0.74635 0.6073 0.0
C116 C 0.15567 0.67024 0.5823 0.0
C117 C 0.11349 0.62766 0.58161 0.0
C118 C 0.08195 0.75056 0.68779 0.0
C119 C 0.11639 0.71067 0.63302 0.0
C120 C 0.06688 0.79722 0.70678 0.0
C121 C 0.0792 0.85121 0.69515 0.0
C122 C 0.10999 0.75794 0.65717 0.0
C123 C 0.11038 0.85658 0.66557 0.0
C124 C 0.15683 0.71229 0.60782 0.0
C125 C 0.07548 0.62644 0.60804 0.0
N126 N 0.12427 0.81052 0.64738 0.0
N127 N 0.0777 0.66746 0.63262 0.0
H128 H 0.47623 0.01236 0.89687 0.0
H129 H 0.13906 0.05515 0.82854 0.0
H130 H 0.36995 0.12849 0.94871 0.0
H131 H 0.26964 0.00356 0.76151 0.0
H132 H 0.21886 0.07667 0.87533 0.0
H133 H 0.39726 0.0035 0.84884 0.0
C134 C 0.4363 0.03662 0.89779 0.0
C135 C 0.4295 0.07145 0.92651 0.0
C136 C 0.22969 0.06098 0.85023 0.0
C137 C 0.33812 0.06044 0.87208 0.0
C138 C 0.1843 0.04825 0.82367 0.0
C139 C 0.19762 0.02726 0.79108 0.0
C140 C 0.28848 0.0517 0.84422 0.0
C141 C 0.25706 0.01962 0.78612 0.0
C142 C 0.39122 0.03152 0.87043 0.0
C143 C 0.37689 0.10173 0.92668 0.0
N144 N 0.30006 0.03141 0.81242 0.0
N145 N 0.33258 0.09494 0.89999 0.0
H146 H 0.19504 0.38075 0.44817 0.0
H147 H 0.99542 0.18784 0.3137 0.0
H148 H 0.01253 0.41175 0.41109 0.0
H149 H 0.17819 0.15123 0.34569 0.0
H150 H 0.00753 0.27894 0.34182 0.0
H151 H 0.19611 0.30471 0.40492 0.0
C152 C 0.15549 0.372 0.43071 0.0
C153 C 0.10332 0.40191 0.43365 0.0
C154 C 0.04547 0.25162 0.34238 0.0
C155 C 0.10434 0.31573 0.38421 0.0
C156 C 0.03852 0.19973 0.32615 0.0
C157 C 0.08582 0.1623 0.32761 0.0
C158 C 0.09983 0.26571 0.36111 0.0
C159 C 0.14079 0.17936 0.34399 0.0
C160 C 0.15614 0.32871 0.40606 0.0
C161 C 0.05345 0.38915 0.41027 0.0
N162 N 0.14613 0.22964 0.3608 0.0
N163 N 0.05515 0.34691 0.38682 0.0
H164 H 0.692 0.07516 0.93835 0.0
H165 H 0.85134 0.8824 0.80694 0.0
H166 H 0.66788 0.89628 0.93148 0.0
H167 H 0.89734 0.0552 0.82746 0.0
H168 H 0.78251 0.88709 0.85134 0.0
H169 H 0.76519 0.069 0.89669 0.0
C170 C 0.70202 0.03447 0.92807 0.0
C171 C 0.67346 0.9861 0.93839 0.0
C172 C 0.80778 0.92394 0.84627 0.0
C173 C 0.75761 0.97891 0.89046 0.0
C174 C 0.84709 0.9214 0.82084 0.0
C175 C 0.88008 0.96861 0.81333 0.0
C176 C 0.80088 0.97421 0.86426 0.0
C177 C 0.87282 0.01782 0.83236 0.0
C178 C 0.74408 0.03104 0.90433 0.0
C179 C 0.6887 0.93462 0.92427 0.0
N180 N 0.83374 0.01943 0.85681 0.0
N181 N 0.72955 0.93242 0.90089 0.0
H182 H 0.06714 0.59122 0.40003 0.0
H183 H 0.98107 0.90044 0.35389 0.0
H184 H 0.9261 0.67158 0.44718 0.0
H185 H 0.05884 0.79278 0.28096 0.0
H186 H 0.95567 0.81797 0.38699 0.0
H187 H 0.06174 0.66423 0.35502 0.0
C188 C 0.03453 0.62409 0.40059 0.0
C189 C 0.99734 0.62588 0.4274 0.0
C190 C 0.97713 0.8124 0.3633 0.0
C191 C 0.99152 0.7101 0.37637 0.0
C192 C 0.99172 0.85949 0.34437 0.0
C193 C 0.02285 0.85359 0.31484 0.0
C194 C 0.99486 0.75925 0.35299 0.0
C195 C 0.03535 0.79938 0.30374 0.0
C196 C 0.03123 0.66557 0.3748 0.0
C197 C 0.95553 0.66895 0.42686 0.0
N198 N 0.02235 0.75438 0.32322 0.0
N199 N 0.95451 0.71021 0.4021 0.0
loop_
_geom_bond_atom_site_label_1
_geom_bond_atom_site_label_2
_geom_bond_distance
_geom_bond_site_symmetry_2
_ccdc_geom_bond_type
C0 O2 1.247 1_545 S
C0 O4 1.258 . S
C1 O8 1.247 . S
C1 O9 1.258 1_545 S
O2 C0 1.247 1_565 S
O2 Zn3 2.028 1_556 S
Zn3 O2 2.028 1_554 S
Zn3 O7 2.035 1_554 S
Zn3 O9 2.035 . S
Zn3 O10 2.028 . S
O4 C0 1.258 . S
O4 Zn5 2.035 1_556 S
Zn5 O4 2.035 1_554 S
Zn5 O6 2.028 1_554 S
Zn5 O8 2.028 . S
Zn5 O11 2.035 . S
O6 Zn5 2.028 1_556 S
O6 C12 1.247 . S
O7 Zn3 2.035 1_556 S
O7 C12 1.258 1_565 S
O8 C1 1.247 . S
O8 Zn5 2.028 . S
O9 C1 1.258 1_565 S
O9 Zn3 2.035 . S
O10 Zn3 2.028 . S
O10 C13 1.247 1_565 S
O11 Zn5 2.035 . S
O11 C13 1.258 . S
C12 O6 1.247 . S
C12 O7 1.258 1_545 S
C13 O10 1.247 1_545 S
C13 O11 1.258 . S
C14 O16 1.247 . S
C14 O18 1.258 . S
C15 O22 1.247 . S
C15 O23 1.258 1_455 S
O16 C14 1.247 . S
O16 Zn17 2.028 1_455 S
Zn17 O16 2.028 1_655 S
Zn17 O21 2.035 1_655 S
Zn17 O23 2.035 . S
Zn17 O24 2.028 . S
O18 C14 1.258 . S
O18 Zn19 2.035 . S
Zn19 O18 2.035 . S
Zn19 O20 2.028 . S
Zn19 O22 2.028 . S
Zn19 O25 2.035 . S
O20 Zn19 2.028 . S
O20 C26 1.247 . S
O21 Zn17 2.035 1_455 S
O21 C26 1.258 . S
O22 C15 1.247 . S
O22 Zn19 2.028 . S
O23 C15 1.258 1_655 S
O23 Zn17 2.035 . S
O24 Zn17 2.028 . S
O24 C27 1.247 1_655 S
O25 Zn19 2.035 . S
O25 C27 1.258 . S
C26 O20 1.247 . S
C26 O21 1.258 . S
C27 O24 1.247 1_455 S
C27 O25 1.258 . S
Mg28 O29 2.028 . S
Mg28 O35 1.986 . S
Mg28 O37 2.114 1_545 S
Mg28 O38 2.251 1_545 S
Mg28 O41 2.010 . S
O29 Mg28 2.028 . S
O29 C32 1.250 1_455 S
O30 Mg31 2.028 . S
O30 C32 1.248 . S
Mg31 O30 2.028 . S
Mg31 O36 2.032 1_655 S
Mg31 O38 2.079 1_645 S
C32 O29 1.250 1_655 S
C32 O30 1.248 . S
C33 O34 1.264 . S
C33 O41 1.249 . S
O34 C33 1.264 . S
O35 Mg28 1.986 . S
O35 C39 1.246 . S
O36 Mg31 2.032 1_455 S
O36 C39 1.259 . S
O37 Mg28 2.114 1_565 S
O37 C40 1.252 . S
O38 Mg28 2.251 1_565 S
O38 Mg31 2.079 1_465 S
O38 C40 1.273 . S
C39 O35 1.246 . S
C39 O36 1.259 . S
C40 O37 1.252 . S
C40 O38 1.273 . S
O41 Mg28 2.010 . S
O41 C33 1.249 . S
Mg42 O43 2.028 1_655 S
Mg42 O49 1.986 1_655 S
Mg42 O51 2.114 1_545 S
Mg42 O52 2.251 1_645 S
Mg42 O55 2.010 . S
O43 Mg42 2.028 1_455 S
O43 C46 1.250 . S
O44 Mg45 2.028 . S
O44 C46 1.248 . S
Mg45 O44 2.028 . S
Mg45 O50 2.032 . S
Mg45 O52 2.079 1_545 S
C46 O43 1.250 . S
C46 O44 1.248 . S
C47 O48 1.264 . S
C47 O55 1.249 . S
O48 C47 1.264 . S
O49 Mg42 1.986 1_455 S
O49 C53 1.246 . S
O50 Mg45 2.032 . S
O50 C53 1.259 . S
O51 Mg42 2.114 1_565 S
O51 C54 1.252 1_655 S
O52 Mg42 2.251 1_465 S
O52 Mg45 2.079 1_565 S
O52 C54 1.273 . S
C53 O49 1.246 . S
C53 O50 1.259 . S
C54 O51 1.252 1_455 S
C54 O52 1.273 . S
O55 Mg42 2.010 . S
O55 C47 1.249 . S
H56 C62 0.930 . S
H57 C66 0.930 . S
H58 C71 0.929 . S
H59 C69 0.929 . S
H60 C64 0.929 . S
H61 C70 0.929 . S
C62 H56 0.930 . S
C62 C63 1.367 1_565 S
C62 C70 1.378 . S
C63 C62 1.367 1_545 S
C63 C71 1.433 . S
C64 H60 0.929 . S
C64 C66 1.378 . S
C64 C68 1.350 . S
C65 C68 1.463 . S
C65 C70 1.350 1_545 S
C65 N73 1.427 . S
C66 H57 0.930 . S
C66 C64 1.378 . S
C66 C67 1.367 . S
C67 C66 1.367 . S
C67 C69 1.433 1_545 S
C68 C64 1.350 . S
C68 C65 1.463 . S
C68 N72 1.427 1_545 S
C69 H59 0.929 . S
C69 C67 1.433 1_565 S
C69 N72 1.384 . S
C70 H61 0.929 . S
C70 C62 1.378 . S
C70 C65 1.350 1_565 S
C71 H58 0.929 . S
C71 C63 1.433 . S
C71 N73 1.384 . S
N72 C68 1.427 1_565 S
N72 C69 1.384 . S
N73 C65 1.427 . S
N73 C71 1.384 . S
H74 C80 0.930 . S
H75 C84 0.930 1_655 S
H76 C89 0.929 1_655 S
H77 C87 0.929 . S
H78 C82 0.929 1_655 S
H79 C88 0.929 . S
C80 H74 0.930 . S
C80 C81 1.367 . S
C80 C88 1.378 . S
C81 C80 1.367 . S
C81 C89 1.433 . S
C82 H78 0.929 1_455 S
C82 C84 1.378 . S
C82 C86 1.350 . S
C83 C86 1.463 . S
C83 C88 1.350 . S
C83 N91 1.427 . S
C84 H75 0.930 1_455 S
C84 C82 1.378 . S
C84 C85 1.367 . S
C85 C84 1.367 . S
C85 C87 1.433 . S
C86 C82 1.350 . S
C86 C83 1.463 . S
C86 N90 1.427 . S
C87 H77 0.929 . S
C87 C85 1.433 . S
C87 N90 1.384 . S
C88 H79 0.929 . S
C88 C80 1.378 . S
C88 C83 1.350 . S
C89 H76 0.929 1_455 S
C89 C81 1.433 . S
C89 N91 1.384 . S
N90 C86 1.427 . S
N90 C87 1.384 . S
N91 C83 1.427 . S
N91 C89 1.384 . S
H92 C98 0.930 . S
H93 C102 0.930 . S
H94 C107 0.929 . S
H95 C105 0.929 . S
H96 C100 0.929 . S
H97 C106 0.929 . S
C98 H92 0.930 . S
C98 C99 1.367 . S
C98 C106 1.378 . S
C99 C98 1.367 . S
C99 C107 1.433 1_545 S
C100 H96 0.929 . S
C100 C102 1.378 . S
C100 C104 1.350 1_565 S
C101 C104 1.463 . S
C101 C106 1.350 . S
C101 N109 1.427 1_545 S
C102 H93 0.930 . S
C102 C100 1.378 . S
C102 C103 1.367 1_565 S
C103 C102 1.367 1_545 S
C103 C105 1.433 . S
C104 C100 1.350 1_545 S
C104 C101 1.463 . S
C104 N108 1.427 . S
C105 H95 0.929 . S
C105 C103 1.433 . S
C105 N108 1.384 . S
C106 H97 0.929 . S
C106 C98 1.378 . S
C106 C101 1.350 . S
C107 H94 0.929 . S
C107 C99 1.433 1_565 S
C107 N109 1.384 . S
N108 C104 1.427 . S
N108 C105 1.384 . S
N109 C101 1.427 1_565 S
N109 C107 1.384 . S
H110 C116 0.930 . S
H111 C120 0.930 . S
H112 C125 0.929 . S
H113 C123 0.929 . S
H114 C118 0.929 . S
H115 C124 0.929 . S
C116 H110 0.930 . S
C116 C117 1.367 . S
C116 C124 1.378 . S
C117 C116 1.367 . S
C117 C125 1.433 . S
C118 H114 0.929 . S
C118 C120 1.378 . S
C118 C122 1.350 . S
C119 C122 1.463 . S
C119 C124 1.350 . S
C119 N127 1.427 . S
C120 H111 0.930 . S
C120 C118 1.378 . S
C120 C121 1.367 . S
C121 C120 1.367 . S
C121 C123 1.433 . S
C122 C118 1.350 . S
C122 C119 1.463 . S
C122 N126 1.427 . S
C123 H113 0.929 . S
C123 C121 1.433 . S
C123 N126 1.384 . S
C124 H115 0.929 . S
C124 C116 1.378 . S
C124 C119 1.350 . S
C125 H112 0.929 . S
C125 C117 1.433 . S
C125 N127 1.384 . S
N126 C122 1.427 . S
N126 C123 1.384 . S
N127 C119 1.427 . S
N127 C125 1.384 . S
H128 C134 0.930 . S
H129 C138 0.930 . S
H130 C143 0.929 . S
H131 C141 0.929 . S
H132 C136 0.929 . S
H133 C142 0.929 . S
C134 H128 0.930 . S
C134 C135 1.367 1_565 S
C134 C142 1.378 . S
C135 C134 1.367 1_545 S
C135 C143 1.433 . S
C136 H132 0.929 . S
C136 C138 1.378 . S
C136 C140 1.350 . S
C137 C140 1.463 . S
C137 C142 1.350 1_545 S
C137 N145 1.427 . S
C138 H129 0.930 . S
C138 C136 1.378 . S
C138 C139 1.367 . S
C139 C138 1.367 . S
C139 C141 1.433 1_545 S
C140 C136 1.350 . S
C140 C137 1.463 . S
C140 N144 1.427 1_545 S
C141 H131 0.929 . S
C141 C139 1.433 1_565 S
C141 N144 1.384 . S
C142 H133 0.929 . S
C142 C134 1.378 . S
C142 C137 1.350 1_565 S
C143 H130 0.929 . S
C143 C135 1.433 . S
C143 N145 1.384 . S
N144 C140 1.427 1_565 S
N144 C141 1.384 . S
N145 C137 1.427 . S
N145 C143 1.384 . S
H146 C152 0.930 . S
H147 C156 0.930 1_655 S
H148 C161 0.929 1_655 S
H149 C159 0.929 . S
H150 C154 0.929 1_655 S
H151 C160 0.929 . S
C152 H146 0.930 . S
C152 C153 1.367 . S
C152 C160 1.378 . S
C153 C152 1.367 . S
C153 C161 1.433 . S
C154 H150 0.929 1_455 S
C154 C156 1.378 . S
C154 C158 1.350 . S
C155 C158 1.463 . S
C155 C160 1.350 . S
C155 N163 1.427 . S
C156 H147 0.930 1_455 S
C156 C154 1.378 . S
C156 C157 1.367 . S
C157 C156 1.367 . S
C157 C159 1.433 . S
C158 C154 1.350 . S
C158 C155 1.463 . S
C158 N162 1.427 . S
C159 H149 0.929 . S
C159 C157 1.433 . S
C159 N162 1.384 . S
C160 H151 0.929 . S
C160 C152 1.378 . S
C160 C155 1.350 . S
C161 H148 0.929 1_455 S
C161 C153 1.433 . S
C161 N163 1.384 . S
N162 C158 1.427 . S
N162 C159 1.384 . S
N163 C155 1.427 . S
N163 C161 1.384 . S
H164 C170 0.930 . S
H165 C174 0.930 . S
H166 C179 0.929 . S
H167 C177 0.929 . S
H168 C172 0.929 . S
H169 C178 0.929 . S
C170 H164 0.930 . S
C170 C171 1.367 . S
C170 C178 1.378 . S
C171 C170 1.367 . S
C171 C179 1.433 1_545 S
C172 H168 0.929 . S
C172 C174 1.378 . S
C172 C176 1.350 1_565 S
C173 C176 1.463 . S
C173 C178 1.350 . S
C173 N181 1.427 1_545 S
C174 H165 0.930 . S
C174 C172 1.378 . S
C174 C175 1.367 1_565 S
C175 C174 1.367 1_545 S
C175 C177 1.433 . S
C176 C172 1.350 1_545 S
C176 C173 1.463 . S
C176 N180 1.427 . S
C177 H167 0.929 . S
C177 C175 1.433 . S
C177 N180 1.384 . S
C178 H169 0.929 . S
C178 C170 1.378 . S
C178 C173 1.350 . S
C179 H166 0.929 . S
C179 C171 1.433 1_565 S
C179 N181 1.384 . S
N180 C176 1.427 . S
N180 C177 1.384 . S
N181 C173 1.427 1_565 S
N181 C179 1.384 . S
H182 C188 0.930 . S
H183 C192 0.930 1_655 S
H184 C197 0.929 1_655 S
H185 C195 0.929 . S
H186 C190 0.929 1_655 S
H187 C196 0.929 . S
C188 H182 0.930 . S
C188 C189 1.367 . S
C188 C196 1.378 . S
C189 C188 1.367 . S
C189 C197 1.433 . S
C190 H186 0.929 1_455 S
C190 C192 1.378 . S
C190 C194 1.350 . S
C191 C194 1.463 . S
C191 C196 1.350 . S
C191 N199 1.427 . S
C192 H183 0.930 1_455 S
C192 C190 1.378 . S
C192 C193 1.367 . S
C193 C192 1.367 . S
C193 C195 1.433 . S
C194 C190 1.350 . S
C194 C191 1.463 . S
C194 N198 1.427 . S
C195 H185 0.929 . S
C195 C193 1.433 . S
C195 N198 1.384 . S
C196 H187 0.929 . S
C196 C188 1.378 . S
C196 C191 1.350 . S
C197 H184 0.929 1_455 S
C197 C189 1.433 . S
C197 N199 1.384 . S
N198 C194 1.427 . S
N198 C195 1.384 . S
N199 C191 1.427 . S
N199 C197 1.384 . S
C67 C33 1.256 . S
C63 C13 1.465 . S
C85 C53 1.438 . S
C81 C15 1.464 . S
C103 C32 1.446 . S
C99 C1 1.475 . S
C121 C54 1.480 . S
C117 C27 1.480 . S
C139 C46 1.445 . S
C135 C0 1.476 . S
C157 C39 1.428 . S
C153 C26 1.463 . S
C175 C47 1.257 . S
C171 C12 1.464 . S
C189 C14 1.480 . S
C193 C40 1.480 . S
