# Generated by pormake.
# Topology bcu-b, (8,8)-cn, num edge types: 1
# Building blocks:
#     Node 0, Type 0, BuildingBlock: TAGTUT_clean_sbu_1, # of connection points: 8
#     Node 1, Type 1, BuildingBlock: TAGTUT_clean_sbu_1, # of connection points: 8
#     Edge 2, Type (0, 1), BuildingBlock: OJICUG_clean_linker_0, # of connection points: 2
#     Edge 3, Type (0, 1), BuildingBlock: OJICUG_clean_linker_0, # of connection points: 2
#     Edge 4, Type (0, 1), BuildingBlock: OJICUG_clean_linker_0, # of connection points: 2
#     Edge 5, Type (0, 1), BuildingBlock: OJICUG_clean_linker_0, # of connection points: 2
#     Edge 6, Type (0, 1), BuildingBlock: OJICUG_clean_linker_0, # of connection points: 2
#     Edge 7, Type (0, 1), BuildingBlock: OJICUG_clean_linker_0, # of connection points: 2
#     Edge 8, Type (0, 1), BuildingBlock: OJICUG_clean_linker_0, # of connection points: 2
#     Edge 9, Type (0, 1), BuildingBlock: OJICUG_clean_linker_0, # of connection points: 2
# Relax obj value: 0.013
# Max RMSD: 0.070
# Mean RMSD: 0.070
data_MOF--net-bcu-b--node1-TAGTUT_clean_sbu_1--node2-TAGTUT_clean_sbu_1--edge1-OJICUG_clean_linker_0
_symmetry_space_group_name_H-M    P1
_symmetry_Int_Tables_number       1
_symmetry_cell_setting            triclinic
loop_
_symmetry_equiv_pos_as_xyz
'x, y, z'
_cell_length_a     13.666828
_cell_length_b     15.167215
_cell_length_c     17.408737
_cell_angle_alpha  90.697964
_cell_angle_beta   94.896649
_cell_angle_gamma 117.30587
loop_
_atom_site_label
_atom_site_type_symbol
_atom_site_fract_x
_atom_site_fract_y
_atom_site_fract_z
_atom_type_partial_charge
C0 C 0.82645 0.15592 0.02315 0.0
C1 C 0.90762 0.14064 0.79237 0.0
C2 C 0.86988 0.78256 0.85371 0.0
Mg3 Mg 1.04182 0.19092 -0.04898 0.0
O4 O 0.97861 0.05691 -0.02646 0.0
Mg5 Mg 0.82734 0.96504 0.92333 0.0
Mg6 Mg 0.06027 -0.01673 0.95023 0.0
O7 O 0.14166 0.90943 0.92692 0.0
Mg8 Mg 0.07815 0.77522 0.94921 0.0
Mg9 Mg 0.29288 0.00109 -0.02283 0.0
C10 C 0.24999 0.18381 0.04689 0.0
C11 C 0.24393 0.11172 0.8346 0.0
O12 O 0.77406 0.06651 -0.00758 0.0
O13 O 0.92738 0.21448 0.01312 0.0
O14 O 0.84476 0.05836 0.81964 0.0
O15 O 0.99834 0.20313 0.83024 0.0
O16 O 0.20557 0.2348 0.01458 0.0
O17 O 0.20934 0.08959 0.03205 0.0
C18 C 0.87691 0.85491 0.06597 0.0
O19 O 0.97659 0.88566 0.04923 0.0
O20 O 0.80824 0.87482 0.02573 0.0
O21 O 0.34585 0.89954 0.90785 0.0
O22 O 0.19238 0.7517 0.88691 0.0
O23 O 0.27535 0.90746 0.08071 0.0
C24 C 0.29334 0.81022 0.87694 0.0
O25 O 0.12201 0.7625 0.06991 0.0
O26 O 0.91427 0.7313 0.88559 0.0
C27 C 0.21268 0.825 0.10784 0.0
O28 O 0.91114 0.87678 0.86869 0.0
O29 O 0.14416 0.08102 0.85116 0.0
O30 O 0.31233 0.09159 0.87495 0.0
C31 C 0.42866 0.69475 0.60602 0.0
C32 C 0.41975 0.69656 0.35431 0.0
C33 C 0.35782 0.31689 0.36299 0.0
Mg34 Mg 0.59499 0.71812 0.48792 0.0
O35 O 0.51778 0.57813 0.5015 0.0
Mg36 Mg 0.35513 0.50674 0.47083 0.0
Mg37 Mg 0.56197 0.48391 0.45074 0.0
O38 O 0.60501 0.38964 0.39973 0.0
Mg39 Mg 0.52667 0.2497 0.41278 0.0
Mg40 Mg 0.76742 0.46006 0.4297 0.0
C41 C 0.76187 0.64978 0.53844 0.0
C42 C 0.72286 0.60903 0.32185 0.0
O43 O 0.35632 0.61415 0.5681 0.0
O44 O 0.52697 0.7463 0.58668 0.0
O45 O 0.35948 0.61338 0.38091 0.0
O46 O 0.5194 0.75071 0.38347 0.0
O47 O 0.74672 0.70242 0.48646 0.0
O48 O 0.73549 0.55853 0.52111 0.0
C49 C 0.40026 0.35842 0.57928 0.0
O50 O 0.4901 0.37778 0.54974 0.0
O51 O 0.34114 0.39941 0.55723 0.0
O52 O 0.76452 0.35239 0.33196 0.0
O53 O 0.59353 0.22069 0.31368 0.0
O54 O 0.76238 0.35281 0.51917 0.0
C55 C 0.69176 0.27195 0.29409 0.0
O56 O 0.60188 0.2161 0.51687 0.0
O57 O 0.37362 0.2636 0.41415 0.0
C58 C 0.70177 0.26974 0.54578 0.0
O59 O 0.38962 0.40918 0.38046 0.0
O60 O 0.63328 0.58977 0.35166 0.0
O61 O 0.78195 0.56791 0.34359 0.0
C62 C 0.34968 0.32589 0.1452 0.0
C63 C 0.31603 0.2259 0.12262 0.0
H64 H 0.38774 0.43296 0.23852 0.0
C65 C 0.31828 0.16164 0.17969 0.0
H66 H 0.35057 0.37797 0.10287 0.0
C67 C 0.33832 0.19294 0.25795 0.0
C68 C 0.35834 0.28955 0.28076 0.0
H69 H 0.29392 0.08432 0.16475 0.0
H70 H 0.33094 0.13929 0.30051 0.0
C71 C 0.3699 0.35721 0.22335 0.0
C72 C 0.68619 0.11893 0.11824 0.0
C73 C 0.77794 0.18815 0.08348 0.0
H74 H 0.58788 0.0908 0.21331 0.0
C75 C 0.83564 0.28617 0.11593 0.0
H76 H 0.64031 0.0427 0.09503 0.0
C77 C 0.80744 0.31273 0.18423 0.0
C78 C 0.71969 0.24245 0.22131 0.0
H79 H 0.90617 0.34182 0.09046 0.0
H80 H 0.85538 0.38843 0.20828 0.0
C81 C 0.65705 0.14607 0.1865 0.0
C82 C 0.91039 0.77254 0.18081 0.0
C83 C 0.83863 0.79625 0.13387 0.0
H84 H 0.93022 0.69627 0.27763 0.0
C85 C 0.72924 0.76384 0.15255 0.0
H86 H 0.99532 0.79776 0.16895 0.0
C87 C 0.69147 0.70582 0.2156 0.0
C88 C 0.76239 0.67901 0.2605 0.0
H89 H 0.67203 0.78205 0.1179 0.0
H90 H 0.60638 0.67966 0.22766 0.0
C91 C 0.87271 0.71452 0.24334 0.0
C92 C 0.36393 0.86192 0.21433 0.0
C93 C 0.25854 0.79575 0.17747 0.0
H94 H 0.49891 0.8825 0.29747 0.0
C95 C 0.20657 0.69791 0.20052 0.0
H96 H 0.40664 0.93801 0.19797 0.0
C97 C 0.26009 0.66612 0.25708 0.0
C98 C 0.36695 0.73132 0.29219 0.0
H99 H 0.12614 0.64479 0.17312 0.0
H100 H 0.21771 0.58959 0.2726 0.0
C101 C 0.41774 0.82997 0.27076 0.0
C102 C 0.43372 0.84733 0.78196 0.0
C103 C 0.34177 0.77809 0.81651 0.0
H104 H 0.53236 0.87564 0.68709 0.0
C105 C 0.28389 0.6802 0.7838 0.0
H106 H 0.47974 0.92346 0.80537 0.0
C107 C 0.31222 0.65379 0.71549 0.0
C108 C 0.40026 0.7241 0.67866 0.0
H109 H 0.21317 0.62453 0.80909 0.0
H110 H 0.2642 0.57818 0.69125 0.0
C111 C 0.46297 0.82035 0.7137 0.0
C112 C 0.39224 0.20274 0.7484 0.0
C113 C 0.28278 0.17063 0.76687 0.0
H114 H 0.51572 0.28685 0.67364 0.0
C115 C 0.21157 0.19495 0.7199 0.0
H116 H 0.44905 0.18408 0.78308 0.0
C117 C 0.24983 0.25318 0.65754 0.0
C118 C 0.36022 0.28835 0.64058 0.0
H119 H 0.12663 0.17001 0.73159 0.0
H120 H 0.19269 0.27183 0.62322 0.0
C121 C 0.43061 0.26099 0.68554 0.0
C122 C 0.75631 0.10402 0.68603 0.0
C123 C 0.86202 0.16982 0.72262 0.0
H124 H 0.62137 0.08398 0.60306 0.0
C125 C 0.9147 0.26743 0.69918 0.0
H126 H 0.71309 0.02811 0.7027 0.0
C127 C 0.86153 0.29942 0.64256 0.0
C128 C 0.75432 0.23465 0.60778 0.0
H129 H 0.99544 0.32026 0.72635 0.0
H130 H 0.90444 0.3758 0.62678 0.0
C131 C 0.70284 0.13617 0.62953 0.0
C132 C 0.80035 0.80485 0.72136 0.0
C133 C 0.80249 0.74051 0.7784 0.0
H134 H 0.78781 0.82713 0.60049 0.0
C135 C 0.76754 0.64027 0.75592 0.0
H136 H 0.8256 0.88235 0.73625 0.0
C137 C 0.74677 0.60879 0.67779 0.0
C138 C 0.75915 0.67661 0.62036 0.0
H139 H 0.76639 0.58812 0.79827 0.0
H140 H 0.72831 0.53288 0.66264 0.0
C141 C 0.77975 0.77339 0.6431 0.0
loop_
_geom_bond_atom_site_label_1
_geom_bond_atom_site_label_2
_geom_bond_distance
_geom_bond_site_symmetry_2
_ccdc_geom_bond_type
C0 O12 1.241 . S
C0 O13 1.280 . S
C1 O14 1.277 . S
C1 O15 1.245 . S
C2 O26 1.247 . S
C2 O28 1.289 . S
Mg3 O4 1.926 . S
Mg3 O13 1.984 . S
Mg3 O15 1.988 1_554 S
Mg3 O16 2.061 1_655 S
O4 Mg3 1.926 . S
O4 Mg5 1.986 1_544 S
O4 Mg6 1.917 1_655 S
Mg5 O4 1.986 1_566 S
Mg5 O12 2.042 1_566 S
Mg5 O14 2.041 1_565 S
Mg5 O20 2.038 1_556 S
Mg5 O28 2.238 . S
Mg6 O4 1.917 1_455 S
Mg6 O7 1.917 1_544 S
Mg6 O17 2.106 . S
Mg6 O19 2.079 1_445 S
Mg6 O28 2.106 1_444 S
Mg6 O29 2.079 1_554 S
O7 Mg6 1.917 1_566 S
O7 Mg8 1.926 . S
O7 Mg9 1.986 1_566 S
Mg8 O7 1.926 . S
Mg8 O22 1.984 . S
Mg8 O25 1.988 1_556 S
Mg8 O26 2.061 1_455 S
Mg9 O7 1.986 1_544 S
Mg9 O17 2.238 . S
Mg9 O21 2.042 1_544 S
Mg9 O23 2.041 1_545 S
Mg9 O30 2.038 1_554 S
C10 O16 1.247 . S
C10 O17 1.289 . S
C11 O29 1.245 . S
C11 O30 1.274 . S
O12 C0 1.241 . S
O12 Mg5 2.042 1_544 S
O13 C0 1.280 . S
O13 Mg3 1.984 . S
O14 C1 1.277 . S
O14 Mg5 2.041 1_545 S
O15 C1 1.245 . S
O15 Mg3 1.988 1_556 S
O16 Mg3 2.061 1_455 S
O16 C10 1.247 . S
O17 Mg6 2.106 . S
O17 Mg9 2.238 . S
O17 C10 1.289 . S
C18 O19 1.245 . S
C18 O20 1.274 . S
O19 Mg6 2.079 1_665 S
O19 C18 1.245 . S
O20 Mg5 2.038 1_554 S
O20 C18 1.274 . S
O21 Mg9 2.042 1_566 S
O21 C24 1.241 . S
O22 Mg8 1.984 . S
O22 C24 1.280 . S
O23 Mg9 2.041 1_565 S
O23 C27 1.277 . S
C24 O21 1.241 . S
C24 O22 1.280 . S
O25 Mg8 1.988 1_554 S
O25 C27 1.245 . S
O26 C2 1.247 . S
O26 Mg8 2.061 1_655 S
C27 O23 1.277 . S
C27 O25 1.245 . S
O28 C2 1.289 . S
O28 Mg5 2.238 . S
O28 Mg6 2.106 1_666 S
O29 Mg6 2.079 1_556 S
O29 C11 1.245 . S
O30 Mg9 2.038 1_556 S
O30 C11 1.274 . S
C31 O43 1.241 . S
C31 O44 1.280 . S
C32 O45 1.277 . S
C32 O46 1.245 . S
C33 O57 1.247 . S
C33 O59 1.289 . S
Mg34 O35 1.926 . S
Mg34 O44 1.984 . S
Mg34 O46 1.988 . S
Mg34 O47 2.061 . S
O35 Mg34 1.926 . S
O35 Mg36 1.986 . S
O35 Mg37 1.917 . S
Mg36 O35 1.986 . S
Mg36 O43 2.042 . S
Mg36 O45 2.041 . S
Mg36 O51 2.038 . S
Mg36 O59 2.238 . S
Mg37 O35 1.917 . S
Mg37 O38 1.917 . S
Mg37 O48 2.106 . S
Mg37 O50 2.079 . S
Mg37 O59 2.106 . S
Mg37 O60 2.079 . S
O38 Mg37 1.917 . S
O38 Mg39 1.926 . S
O38 Mg40 1.986 . S
Mg39 O38 1.926 . S
Mg39 O53 1.984 . S
Mg39 O56 1.988 . S
Mg39 O57 2.061 . S
Mg40 O38 1.986 . S
Mg40 O48 2.238 . S
Mg40 O52 2.042 . S
Mg40 O54 2.041 . S
Mg40 O61 2.038 . S
C41 O47 1.247 . S
C41 O48 1.289 . S
C42 O60 1.245 . S
C42 O61 1.274 . S
O43 C31 1.241 . S
O43 Mg36 2.042 . S
O44 C31 1.280 . S
O44 Mg34 1.984 . S
O45 C32 1.277 . S
O45 Mg36 2.041 . S
O46 C32 1.245 . S
O46 Mg34 1.988 . S
O47 Mg34 2.061 . S
O47 C41 1.247 . S
O48 Mg37 2.106 . S
O48 Mg40 2.238 . S
O48 C41 1.289 . S
C49 O50 1.245 . S
C49 O51 1.274 . S
O50 Mg37 2.079 . S
O50 C49 1.245 . S
O51 Mg36 2.038 . S
O51 C49 1.274 . S
O52 Mg40 2.042 . S
O52 C55 1.241 . S
O53 Mg39 1.984 . S
O53 C55 1.280 . S
O54 Mg40 2.041 . S
O54 C58 1.277 . S
C55 O52 1.241 . S
C55 O53 1.280 . S
O56 Mg39 1.988 . S
O56 C58 1.245 . S
O57 C33 1.247 . S
O57 Mg39 2.061 . S
C58 O54 1.277 . S
C58 O56 1.245 . S
O59 C33 1.289 . S
O59 Mg36 2.238 . S
O59 Mg37 2.106 . S
O60 Mg37 2.079 . S
O60 C42 1.245 . S
O61 Mg40 2.038 . S
O61 C42 1.274 . S
C62 C63 1.387 . S
C62 H66 0.950 . S
C62 C71 1.390 . S
C63 C62 1.387 . S
C63 C65 1.387 . S
H64 C71 0.950 . S
C65 C63 1.387 . S
C65 C67 1.390 . S
C65 H69 0.950 . S
H66 C62 0.950 . S
C67 C65 1.390 . S
C67 C68 1.387 . S
C67 H70 0.950 . S
C68 C67 1.387 . S
C68 C71 1.387 . S
H69 C65 0.950 . S
H70 C67 0.950 . S
C71 C62 1.390 . S
C71 H64 0.950 . S
C71 C68 1.387 . S
C72 C73 1.387 . S
C72 H76 0.950 . S
C72 C81 1.390 . S
C73 C72 1.387 . S
C73 C75 1.387 . S
H74 C81 0.950 . S
C75 C73 1.387 . S
C75 C77 1.390 . S
C75 H79 0.950 . S
H76 C72 0.950 . S
C77 C75 1.390 . S
C77 C78 1.387 . S
C77 H80 0.950 . S
C78 C77 1.387 . S
C78 C81 1.387 . S
H79 C75 0.950 . S
H80 C77 0.950 . S
C81 C72 1.390 . S
C81 H74 0.950 . S
C81 C78 1.387 . S
C82 C83 1.387 . S
C82 H86 0.950 . S
C82 C91 1.390 . S
C83 C82 1.387 . S
C83 C85 1.387 . S
H84 C91 0.950 . S
C85 C83 1.387 . S
C85 C87 1.390 . S
C85 H89 0.950 . S
H86 C82 0.950 . S
C87 C85 1.390 . S
C87 C88 1.387 . S
C87 H90 0.950 . S
C88 C87 1.387 . S
C88 C91 1.387 . S
H89 C85 0.950 . S
H90 C87 0.950 . S
C91 C82 1.390 . S
C91 H84 0.950 . S
C91 C88 1.387 . S
C92 C93 1.387 . S
C92 H96 0.950 . S
C92 C101 1.390 . S
C93 C92 1.387 . S
C93 C95 1.387 . S
H94 C101 0.950 . S
C95 C93 1.387 . S
C95 C97 1.390 . S
C95 H99 0.950 . S
H96 C92 0.950 . S
C97 C95 1.390 . S
C97 C98 1.387 . S
C97 H100 0.950 . S
C98 C97 1.387 . S
C98 C101 1.387 . S
H99 C95 0.950 . S
H100 C97 0.950 . S
C101 C92 1.390 . S
C101 H94 0.950 . S
C101 C98 1.387 . S
C102 C103 1.387 . S
C102 H106 0.950 . S
C102 C111 1.390 . S
C103 C102 1.387 . S
C103 C105 1.387 . S
H104 C111 0.950 . S
C105 C103 1.387 . S
C105 C107 1.390 . S
C105 H109 0.950 . S
H106 C102 0.950 . S
C107 C105 1.390 . S
C107 C108 1.387 . S
C107 H110 0.950 . S
C108 C107 1.387 . S
C108 C111 1.387 . S
H109 C105 0.950 . S
H110 C107 0.950 . S
C111 C102 1.390 . S
C111 H104 0.950 . S
C111 C108 1.387 . S
C112 C113 1.387 . S
C112 H116 0.950 . S
C112 C121 1.390 . S
C113 C112 1.387 . S
C113 C115 1.387 . S
H114 C121 0.950 . S
C115 C113 1.387 . S
C115 C117 1.390 . S
C115 H119 0.950 . S
H116 C112 0.950 . S
C117 C115 1.390 . S
C117 C118 1.387 . S
C117 H120 0.950 . S
C118 C117 1.387 . S
C118 C121 1.387 . S
H119 C115 0.950 . S
H120 C117 0.950 . S
C121 C112 1.390 . S
C121 H114 0.950 . S
C121 C118 1.387 . S
C122 C123 1.387 . S
C122 H126 0.950 . S
C122 C131 1.390 . S
C123 C122 1.387 . S
C123 C125 1.387 . S
H124 C131 0.950 . S
C125 C123 1.387 . S
C125 C127 1.390 . S
C125 H129 0.950 . S
H126 C122 0.950 . S
C127 C125 1.390 . S
C127 C128 1.387 . S
C127 H130 0.950 . S
C128 C127 1.387 . S
C128 C131 1.387 . S
H129 C125 0.950 . S
H130 C127 0.950 . S
C131 C122 1.390 . S
C131 H124 0.950 . S
C131 C128 1.387 . S
C132 C133 1.387 . S
C132 H136 0.950 . S
C132 C141 1.390 . S
C133 C132 1.387 . S
C133 C135 1.387 . S
H134 C141 0.950 . S
C135 C133 1.387 . S
C135 C137 1.390 . S
C135 H139 0.950 . S
H136 C132 0.950 . S
C137 C135 1.390 . S
C137 C138 1.387 . S
C137 H140 0.950 . S
C138 C137 1.387 . S
C138 C141 1.387 . S
H139 C135 0.950 . S
H140 C137 0.950 . S
C141 C132 1.390 . S
C141 H134 0.950 . S
C141 C138 1.387 . S
C63 C10 1.084 . S
C68 C33 1.082 . S
C73 C0 1.496 . S
C78 C55 1.495 . S
C83 C18 1.582 . S
C88 C42 1.582 . S
C93 C27 1.640 . S
C98 C32 1.639 . S
C103 C24 1.497 . S
C108 C31 1.498 . S
C118 C49 1.583 . S
C113 C11 1.583 . S
C123 C1 1.641 . S
C128 C58 1.642 . S
C138 C41 1.087 . S
C133 C2 1.089 . S
