# Generated by pormake.
# Topology pth, (4,4)-cn, num edge types: 1
# Building blocks:
#     Node 0, Type 0, BuildingBlock: NAHDIM_clean_sbu_0, # of connection points: 4
#     Node 1, Type 0, BuildingBlock: NAHDIM_clean_sbu_0, # of connection points: 4
#     Node 2, Type 0, BuildingBlock: NAHDIM_clean_sbu_0, # of connection points: 4
#     Node 3, Type 1, BuildingBlock: NAWXER_clean_sbu_0, # of connection points: 4
#     Node 4, Type 1, BuildingBlock: NAWXER_clean_sbu_0, # of connection points: 4
#     Node 5, Type 1, BuildingBlock: NAWXER_clean_sbu_0, # of connection points: 4
#     Edge 6, Type (0, 1), BuildingBlock: EYOCIG_clean_linker_4, # of connection points: 2
#     Edge 7, Type (0, 1), BuildingBlock: EYOCIG_clean_linker_4, # of connection points: 2
#     Edge 8, Type (0, 1), BuildingBlock: EYOCIG_clean_linker_4, # of connection points: 2
#     Edge 9, Type (0, 1), BuildingBlock: EYOCIG_clean_linker_4, # of connection points: 2
#     Edge 10, Type (0, 1), BuildingBlock: EYOCIG_clean_linker_4, # of connection points: 2
#     Edge 11, Type (0, 1), BuildingBlock: EYOCIG_clean_linker_4, # of connection points: 2
#     Edge 12, Type (0, 1), BuildingBlock: EYOCIG_clean_linker_4, # of connection points: 2
#     Edge 13, Type (0, 1), BuildingBlock: EYOCIG_clean_linker_4, # of connection points: 2
#     Edge 14, Type (0, 1), BuildingBlock: EYOCIG_clean_linker_4, # of connection points: 2
#     Edge 15, Type (0, 1), BuildingBlock: EYOCIG_clean_linker_4, # of connection points: 2
#     Edge 16, Type (0, 1), BuildingBlock: EYOCIG_clean_linker_4, # of connection points: 2
#     Edge 17, Type (0, 1), BuildingBlock: EYOCIG_clean_linker_4, # of connection points: 2
# Relax obj value: 0.052
# Max RMSD: 0.177
# Mean RMSD: 0.101
data_MOF--net-pth--node1-NAHDIM_clean_sbu_0--node2-NAWXER_clean_sbu_0--edge1-EYOCIG_clean_linker_4
_symmetry_space_group_name_H-M    P1
_symmetry_Int_Tables_number       1
_symmetry_cell_setting            triclinic
loop_
_symmetry_equiv_pos_as_xyz
'x, y, z'
_cell_length_a     18.181162
_cell_length_b     18.337052
_cell_length_c     46.899588
_cell_angle_alpha  92.716331
_cell_angle_beta   90.026511
_cell_angle_gamma 120.86479
loop_
_atom_site_label
_atom_site_type_symbol
_atom_site_fract_x
_atom_site_fract_y
_atom_site_fract_z
_atom_type_partial_charge
C0 C 0.05473 0.95162 0.09132 0.0
O1 O 0.99717 0.97046 0.09947 0.0
O2 O 0.05548 0.13753 0.07734 0.0
Zn3 Zn 0.06239 0.05489 0.04843 0.0
O4 O 0.94651 0.96901 0.03026 0.0
C5 C 0.15581 0.18818 0.01007 0.0
O6 O 0.10809 0.21572 0.02143 0.0
O7 O 0.09792 0.98407 0.06937 0.0
C8 C 0.91853 0.97923 0.00692 0.0
O9 O 0.96266 0.05072 -0.00587 0.0
C10 C 0.9988 0.15826 0.07623 0.0
O11 O 0.9407 0.12663 0.05543 0.0
O12 O 0.14836 0.11935 0.01792 0.0
C13 C 0.07339 0.20415 0.33522 0.0
O14 O 0.01533 0.1263 0.32645 0.0
O15 O 0.07258 0.01977 0.34878 0.0
Zn16 Zn 0.08431 0.11046 0.37827 0.0
O17 O 0.97255 0.0814 0.39719 0.0
C18 C 0.18247 0.07137 0.41568 0.0
O19 O 0.13132 0.99494 0.40405 0.0
O20 O 0.11804 0.21671 0.35772 0.0
C21 C 0.94863 0.04395 0.42041 0.0
O22 O 0.99328 0.01515 0.43234 0.0
C23 C 0.01747 0.94092 0.34926 0.0
O24 O 0.96234 0.91249 0.36984 0.0
O25 O 0.17534 0.13333 0.40833 0.0
C26 C 0.14863 0.01575 0.66873 0.0
O27 O 0.1286 0.07058 0.66013 0.0
O28 O 0.95881 0.01262 0.68174 0.0
Zn29 Zn 0.04 0.01003 0.71107 0.0
O30 O 0.12308 0.12611 0.72969 0.0
C31 C 0.90275 0.91739 0.74873 0.0
O32 O 0.87471 0.96285 0.73738 0.0
O33 O 0.11465 0.97504 0.69075 0.0
C34 C 0.10903 0.15285 0.75329 0.0
O35 O 0.03548 0.10761 0.76559 0.0
C36 C 0.93583 0.06742 0.68227 0.0
O37 O 0.96422 0.12736 0.70283 0.0
O38 O 0.97365 0.92599 0.74112 0.0
C39 C 0.01897 0.6608 0.25237 0.0
C40 C 0.01244 0.4454 0.17343 0.0
O41 O 0.08869 0.67058 0.24286 0.0
Zn42 Zn 0.11369 0.60259 0.21305 0.0
O43 O 0.94711 0.59857 0.24329 0.0
Zn44 Zn 0.93718 0.51289 0.213 0.0
O45 O 0.96858 0.45465 0.24263 0.0
O46 O 0.11032 0.52797 0.24261 0.0
O47 O 0.94212 0.43513 0.18255 0.0
O48 O 0.08377 0.50713 0.18305 0.0
O49 O 0.1058 0.67143 0.18347 0.0
O50 O 0.96405 0.60082 0.18344 0.0
C51 C 0.04069 0.46864 0.25185 0.0
C52 C 0.03464 0.6593 0.17423 0.0
C53 C 0.65565 0.04534 0.58431 0.0
C54 C 0.45407 0.05661 0.50734 0.0
O55 O 0.59549 0.97609 0.57267 0.0
Zn56 Zn 0.50704 0.95629 0.54194 0.0
O57 O 0.66783 0.11669 0.5774 0.0
Zn58 Zn 0.60125 0.13724 0.5482 0.0
O59 O 0.51078 0.10979 0.57776 0.0
O60 O 0.43864 0.96915 0.57279 0.0
O61 O 0.51564 0.12498 0.51875 0.0
O62 O 0.44121 0.98444 0.51373 0.0
O63 O 0.59452 0.97633 0.51267 0.0
O64 O 0.6682 0.11688 0.51745 0.0
C65 C 0.45023 0.03781 0.58476 0.0
C66 C 0.65633 0.04757 0.50578 0.0
C67 C 0.41716 0.46304 0.91746 0.0
C68 C 0.62214 0.66277 0.84158 0.0
O69 O 0.40569 0.52115 0.90867 0.0
Zn70 Zn 0.47008 0.61214 0.87984 0.0
O71 O 0.47764 0.45377 0.90834 0.0
Zn72 Zn 0.55798 0.52546 0.87941 0.0
O73 O 0.6229 0.61865 0.91019 0.0
O74 O 0.55311 0.68809 0.91107 0.0
O75 O 0.63145 0.60369 0.85045 0.0
O76 O 0.56288 0.67441 0.85071 0.0
O77 O 0.39458 0.52698 0.84896 0.0
O78 O 0.46465 0.45786 0.8492 0.0
C79 C 0.61289 0.67825 0.92036 0.0
C80 C 0.40457 0.46663 0.83956 0.0
C81 C 0.00489 0.27109 0.11494 0.0
C82 C 0.00101 0.21952 0.09708 0.0
C83 C 0.00939 0.33271 0.13534 0.0
C84 C 0.01156 0.38454 0.15273 0.0
C85 C 0.82519 0.04467 0.44998 0.0
C86 C 0.88116 0.0453 0.43596 0.0
C87 C 0.76505 0.04737 0.46844 0.0
C88 C 0.7163 0.04911 0.48553 0.0
C89 C 0.80146 0.8127 0.78651 0.0
C90 C 0.85205 0.85839 0.76959 0.0
C91 C 0.73699 0.76241 0.80553 0.0
C92 C 0.68263 0.71918 0.82192 0.0
C93 C 0.05616 0.83199 0.11954 0.0
C94 C 0.06027 0.88699 0.10541 0.0
C95 C 0.04376 0.76736 0.13747 0.0
C96 C 0.03519 0.71592 0.15417 0.0
C97 C 0.29589 0.08174 0.4531 0.0
C98 C 0.24647 0.08333 0.43635 0.0
C99 C 0.35033 0.0714 0.47183 0.0
C100 C 0.39619 0.06194 0.48791 0.0
C101 C 0.23282 0.28597 0.78266 0.0
C102 C 0.17784 0.22559 0.76864 0.0
C103 C 0.29477 0.3516 0.80133 0.0
C104 C 0.34454 0.40447 0.81878 0.0
C105 C 0.82458 0.05467 0.64303 0.0
C106 C 0.87536 0.06104 0.66103 0.0
C107 C 0.7639 0.04735 0.62243 0.0
C108 C 0.71319 0.04379 0.60497 0.0
C109 C 0.7859 0.85173 0.9786 0.0
C110 C 0.846 0.90821 -0.00773 0.0
C111 C 0.72237 0.78826 0.95975 0.0
C112 C 0.6727 0.73771 0.94176 0.0
C113 C 0.01999 0.83276 0.31042 0.0
C114 C 0.01895 0.88223 0.32812 0.0
C115 C 0.02162 0.77396 0.29015 0.0
C116 C 0.02151 0.72287 0.27291 0.0
C117 C 0.27267 0.01295 0.64116 0.0
C118 C 0.21565 0.00996 0.65498 0.0
C119 C 0.33869 0.02394 0.623 0.0
C120 C 0.39108 0.03318 0.60568 0.0
C121 C 0.26311 0.28715 0.97221 0.0
C122 C 0.21651 0.23761 -0.01084 0.0
C123 C 0.31456 0.35043 0.95329 0.0
C124 C 0.35902 0.40378 0.93702 0.0
C125 C 0.07146 0.32331 0.30691 0.0
C126 C 0.07744 0.27368 0.32118 0.0
C127 C 0.05608 0.37346 0.2888 0.0
C128 C 0.0446 0.41451 0.27201 0.0
loop_
_geom_bond_atom_site_label_1
_geom_bond_atom_site_label_2
_geom_bond_distance
_geom_bond_site_symmetry_2
_ccdc_geom_bond_type
C0 O1 1.160 . S
C0 O7 1.185 . S
O1 C0 1.160 . S
O2 Zn3 1.899 . S
O2 C10 1.284 1_455 S
Zn3 O2 1.899 . S
Zn3 O4 2.032 1_445 S
Zn3 O7 2.086 1_545 S
Zn3 O12 1.977 . S
O4 Zn3 2.032 1_665 S
O4 C8 1.278 . S
C5 O6 1.203 . S
C5 O12 1.267 . S
O6 C5 1.203 . S
O7 C0 1.185 . S
O7 Zn3 2.086 1_565 S
C8 O4 1.278 . S
C8 O9 1.211 1_565 S
O9 C8 1.211 1_545 S
C10 O2 1.284 1_655 S
C10 O11 1.273 . S
O11 C10 1.273 . S
O12 Zn3 1.977 . S
O12 C5 1.267 . S
C13 O14 1.160 . S
C13 O20 1.185 . S
O14 C13 1.160 . S
O15 Zn16 1.899 . S
O15 C23 1.284 1_545 S
Zn16 O15 1.899 . S
Zn16 O17 2.032 1_455 S
Zn16 O20 2.086 . S
Zn16 O25 1.977 . S
O17 Zn16 2.032 1_655 S
O17 C21 1.278 . S
C18 O19 1.203 . S
C18 O25 1.267 . S
O19 C18 1.203 . S
O20 C13 1.185 . S
O20 Zn16 2.086 . S
C21 O17 1.278 . S
C21 O22 1.211 . S
O22 C21 1.211 . S
C23 O15 1.284 1_565 S
C23 O24 1.273 1_455 S
O24 C23 1.273 1_655 S
O25 Zn16 1.977 . S
O25 C18 1.267 . S
C26 O27 1.160 . S
C26 O33 1.185 1_545 S
O27 C26 1.160 . S
O28 Zn29 1.899 1_655 S
O28 C36 1.284 . S
Zn29 O28 1.899 1_455 S
Zn29 O30 2.032 . S
Zn29 O33 2.086 1_545 S
Zn29 O38 1.977 1_445 S
O30 Zn29 2.032 . S
O30 C34 1.278 . S
C31 O32 1.203 . S
C31 O38 1.267 . S
O32 C31 1.203 . S
O33 C26 1.185 1_565 S
O33 Zn29 2.086 1_565 S
C34 O30 1.278 . S
C34 O35 1.211 . S
O35 C34 1.211 . S
C36 O28 1.284 . S
C36 O37 1.273 . S
O37 C36 1.273 . S
O38 Zn29 1.977 1_665 S
O38 C31 1.267 . S
C39 O41 1.247 . S
C39 O43 1.258 1_455 S
C40 O47 1.247 1_455 S
C40 O48 1.258 . S
O41 C39 1.247 . S
O41 Zn42 2.028 . S
Zn42 O41 2.028 . S
Zn42 O46 2.035 . S
Zn42 O48 2.035 . S
Zn42 O49 2.028 . S
O43 C39 1.258 1_655 S
O43 Zn44 2.035 . S
Zn44 O43 2.035 . S
Zn44 O45 2.028 . S
Zn44 O47 2.028 . S
Zn44 O50 2.035 . S
O45 Zn44 2.028 . S
O45 C51 1.247 1_655 S
O46 Zn42 2.035 . S
O46 C51 1.258 . S
O47 C40 1.247 1_655 S
O47 Zn44 2.028 . S
O48 C40 1.258 . S
O48 Zn42 2.035 . S
O49 Zn42 2.028 . S
O49 C52 1.247 . S
O50 Zn44 2.035 . S
O50 C52 1.258 1_655 S
C51 O45 1.247 1_455 S
C51 O46 1.258 . S
C52 O49 1.247 . S
C52 O50 1.258 1_455 S
C53 O55 1.247 1_545 S
C53 O57 1.258 . S
C54 O61 1.247 . S
C54 O62 1.258 1_545 S
O55 C53 1.247 1_565 S
O55 Zn56 2.028 . S
Zn56 O55 2.028 . S
Zn56 O60 2.035 . S
Zn56 O62 2.035 . S
Zn56 O63 2.028 . S
O57 C53 1.258 . S
O57 Zn58 2.035 . S
Zn58 O57 2.035 . S
Zn58 O59 2.028 . S
Zn58 O61 2.028 . S
Zn58 O64 2.035 . S
O59 Zn58 2.028 . S
O59 C65 1.247 . S
O60 Zn56 2.035 . S
O60 C65 1.258 1_565 S
O61 C54 1.247 . S
O61 Zn58 2.028 . S
O62 C54 1.258 1_565 S
O62 Zn56 2.035 . S
O63 Zn56 2.028 . S
O63 C66 1.247 1_565 S
O64 Zn58 2.035 . S
O64 C66 1.258 . S
C65 O59 1.247 . S
C65 O60 1.258 1_545 S
C66 O63 1.247 1_545 S
C66 O64 1.258 . S
C67 O69 1.247 . S
C67 O71 1.258 . S
C68 O75 1.247 . S
C68 O76 1.258 . S
O69 C67 1.247 . S
O69 Zn70 2.028 . S
Zn70 O69 2.028 . S
Zn70 O74 2.035 . S
Zn70 O76 2.035 . S
Zn70 O77 2.028 . S
O71 C67 1.258 . S
O71 Zn72 2.035 . S
Zn72 O71 2.035 . S
Zn72 O73 2.028 . S
Zn72 O75 2.028 . S
Zn72 O78 2.035 . S
O73 Zn72 2.028 . S
O73 C79 1.247 . S
O74 Zn70 2.035 . S
O74 C79 1.258 . S
O75 C68 1.247 . S
O75 Zn72 2.028 . S
O76 C68 1.258 . S
O76 Zn70 2.035 . S
O77 Zn70 2.028 . S
O77 C80 1.247 . S
O78 Zn72 2.035 . S
O78 C80 1.258 . S
C79 O73 1.247 . S
C79 O74 1.258 . S
C80 O77 1.247 . S
C80 O78 1.258 . S
C81 C82 1.174 1_455 S
C81 C83 1.380 . S
C82 C81 1.174 1_655 S
C83 C81 1.380 . S
C83 C84 1.170 . S
C84 C83 1.170 . S
C85 C86 1.170 . S
C85 C87 1.380 . S
C86 C85 1.170 . S
C87 C85 1.380 . S
C87 C88 1.170 . S
C88 C87 1.170 . S
C89 C90 1.170 . S
C89 C91 1.380 . S
C90 C89 1.170 . S
C91 C89 1.380 . S
C91 C92 1.170 . S
C92 C91 1.170 . S
C93 C94 1.170 . S
C93 C95 1.380 . S
C94 C93 1.170 . S
C95 C93 1.380 . S
C95 C96 1.170 . S
C96 C95 1.170 . S
C97 C98 1.170 . S
C97 C99 1.380 . S
C98 C97 1.170 . S
C99 C97 1.380 . S
C99 C100 1.170 . S
C100 C99 1.170 . S
C101 C102 1.170 . S
C101 C103 1.380 . S
C102 C101 1.170 . S
C103 C101 1.380 . S
C103 C104 1.170 . S
C104 C103 1.170 . S
C105 C106 1.170 . S
C105 C107 1.380 . S
C106 C105 1.170 . S
C107 C105 1.380 . S
C107 C108 1.170 . S
C108 C107 1.170 . S
C109 C110 1.152 1_556 S
C109 C111 1.400 . S
C110 C109 1.152 1_554 S
C111 C109 1.400 . S
C111 C112 1.170 . S
C112 C111 1.170 . S
C113 C114 1.170 . S
C113 C115 1.380 . S
C114 C113 1.170 . S
C115 C113 1.380 . S
C115 C116 1.170 . S
C116 C115 1.170 . S
C117 C118 1.170 . S
C117 C119 1.380 . S
C118 C117 1.170 . S
C119 C117 1.380 . S
C119 C120 1.170 . S
C120 C119 1.170 . S
C121 C122 1.170 1_556 S
C121 C123 1.380 . S
C122 C121 1.170 1_554 S
C123 C121 1.380 . S
C123 C124 1.170 . S
C124 C123 1.170 . S
C125 C126 1.170 . S
C125 C127 1.380 . S
C126 C125 1.170 . S
C127 C125 1.380 . S
C127 C128 1.170 . S
C128 C127 1.170 . S
C84 C40 1.432 . S
C82 C10 1.432 . S
C86 C21 1.423 . S
C88 C66 1.485 . S
C90 C31 1.400 . S
C92 C68 1.454 . S
C94 C0 1.388 . S
C96 C52 1.440 . S
C100 C54 1.463 . S
C98 C18 1.355 . S
C102 C34 1.384 . S
C104 C80 1.440 . S
C108 C53 1.438 . S
C106 C36 1.437 . S
C110 C8 1.418 . S
C112 C79 1.437 . S
C116 C39 1.438 . S
C114 C23 1.439 . S
C120 C65 1.398 . S
C118 C26 1.364 . S
C124 C67 1.456 . S
C122 C5 1.399 . S
C126 C13 1.394 . S
C128 C51 1.448 . S
