# Generated by pormake.
# Topology nia, (6,6)-cn, num edge types: 1
# Building blocks:
#     Node 0, Type 0, BuildingBlock: KUMJIN_clean_sbu_0, # of connection points: 6
#     Node 1, Type 0, BuildingBlock: KUMJIN_clean_sbu_0, # of connection points: 6
#     Node 2, Type 1, BuildingBlock: MIDCAF_clean_sbu_0, # of connection points: 6
#     Node 3, Type 1, BuildingBlock: MIDCAF_clean_sbu_0, # of connection points: 6
#     Edge 4, Type (0, 1), None
#     Edge 5, Type (0, 1), None
#     Edge 6, Type (0, 1), None
#     Edge 7, Type (0, 1), None
#     Edge 8, Type (0, 1), None
#     Edge 9, Type (0, 1), None
#     Edge 10, Type (0, 1), None
#     Edge 11, Type (0, 1), None
#     Edge 12, Type (0, 1), None
#     Edge 13, Type (0, 1), None
#     Edge 14, Type (0, 1), None
#     Edge 15, Type (0, 1), None
# Relax obj value: 0.201
# Max RMSD: 0.331
# Mean RMSD: 0.224
data_MOF--net-nia--node1-KUMJIN_clean_sbu_0--node2-MIDCAF_clean_sbu_0--edge1-none
_symmetry_space_group_name_H-M    P1
_symmetry_Int_Tables_number       1
_symmetry_cell_setting            triclinic
loop_
_symmetry_equiv_pos_as_xyz
'x, y, z'
_cell_length_a     15.142218
_cell_length_b     15.131708
_cell_length_c     17.647006
_cell_angle_alpha  90.039813
_cell_angle_beta   89.922675
_cell_angle_gamma 142.82859
loop_
_atom_site_label
_atom_site_type_symbol
_atom_site_fract_x
_atom_site_fract_y
_atom_site_fract_z
_atom_type_partial_charge
Eu0 Eu -0.00081 0.88494 0.04693 0.0
C1 C 0.94346 0.07598 0.71062 0.0
C2 C 0.2962 0.39661 0.6276 0.0
C3 C 0.17125 0.2586 0.59111 0.0
C4 C 0.07025 0.19271 0.72492 0.0
C5 C 0.03368 0.10891 0.65585 0.0
C6 C 0.30965 0.3523 0.56279 0.0
C7 C 0.89366 0.86593 0.70113 0.0
N8 N 0.86934 -0.02693 0.76602 0.0
C9 C 0.8009 0.84785 0.73721 0.0
C10 C -0.01181 -0.01863 0.65173 0.0
Eu11 Eu 0.94659 0.03689 0.90178 0.0
N12 N 0.1014 0.25949 0.82026 0.0
C13 C 0.24737 0.44762 0.85939 0.0
C14 C 0.46611 0.61432 0.67773 0.0
C15 C 0.44899 0.64721 0.792 0.0
H16 H 0.7151 0.79303 0.69907 0.0
H17 H 0.49014 0.66769 0.73444 0.0
H18 H 0.36771 0.42515 0.51436 0.0
H19 H 0.88679 0.79056 0.69914 0.0
H20 H 0.22981 0.4536 0.91652 0.0
H21 H 0.80716 0.37262 0.186 0.0
H22 H 0.41124 0.53127 0.63927 0.0
H23 H 0.77824 0.91971 0.16173 0.0
H24 H 0.91889 0.54829 0.0722 0.0
H25 H 0.87071 0.02091 0.27531 0.0
H26 H 0.13732 0.27931 0.54216 0.0
H27 H 0.74517 0.40484 0.27452 0.0
H28 H 0.46835 0.37433 0.37236 0.0
H29 H 0.02636 -0.03144 0.61106 0.0
H30 H 0.58936 0.59381 0.42635 0.0
N31 N 0.87984 0.62971 0.145 0.0
C32 C 0.86922 0.53711 0.12215 0.0
C33 C 0.75147 0.47659 0.23742 0.0
C34 C 0.66687 0.53822 0.25757 0.0
C35 C 0.80339 0.44114 0.17899 0.0
C36 C 0.74952 0.53837 0.22451 0.0
H37 H 0.9058 0.90075 0.32991 0.0
N38 N 0.73182 0.74243 0.18017 0.0
C39 C 0.80047 0.90781 0.2677 0.0
C40 C 0.68338 0.63286 0.23931 0.0
C41 C 0.74082 0.83942 0.19996 0.0
C42 C 0.80041 0.83995 0.31646 0.0
C43 C 0.68512 0.69065 0.31211 0.0
O44 O 0.19611 -0.02002 0.09883 0.0
O45 O 0.10454 0.0392 0.94792 0.0
O46 O 0.8202 0.8093 0.86488 0.0
O47 O 0.90532 0.75588 0.93023 0.0
O48 O 0.22451 0.04295 0.0132 0.0
O49 O 0.05856 0.79271 0.02123 0.0
O50 O 0.7251 0.90718 0.88246 0.0
O51 O 0.84085 0.86304 -0.01036 0.0
O52 O 0.18261 0.15193 0.06392 0.0
O53 O 0.12666 0.22604 -0.01749 0.0
O54 O 0.82553 -0.0116 0.00483 0.0
O55 O 0.88813 0.12989 0.92357 0.0
C56 C 0.22739 0.08602 0.95001 0.0
C57 C 0.20119 0.82419 0.11407 0.0
C58 C 0.29388 0.74615 0.11745 0.0
C59 C 0.28018 0.81798 0.08045 0.0
C60 C 0.21231 0.66452 0.18268 0.0
C61 C 0.14753 0.76682 0.18793 0.0
C62 C 0.14168 0.6774 0.21874 0.0
C63 C 0.83124 0.73156 0.87289 0.0
C64 C 0.1697 0.88116 0.06879 0.0
C65 C 0.60044 0.58696 0.36707 0.0
C66 C 0.54056 0.46804 0.33468 0.0
C67 C 0.77151 0.87043 0.02469 0.0
C68 C 0.67805 0.02186 0.85668 0.0
C69 C 0.67196 0.10453 0.88308 0.0
C70 C 0.59526 0.10895 0.84165 0.0
C71 C 0.50714 0.01319 0.78053 0.0
C72 C 0.60547 0.94387 0.7889 0.0
C73 C 0.51329 0.93155 0.7539 0.0
C74 C 0.19092 0.24457 0.04431 0.0
C75 C 0.75266 0.01092 0.90141 0.0
H76 H 0.33003 0.86824 0.02541 0.0
H77 H 0.20596 0.59378 0.20656 0.0
H78 H 0.09992 0.77989 0.22132 0.0
H79 H 0.085 0.62081 0.27174 0.0
H80 H 0.73361 0.17136 0.93325 0.0
H81 H 0.44383 0.01111 0.74945 0.0
H82 H 0.63022 0.90327 0.7595 0.0
H83 H 0.45628 0.86837 0.70238 0.0
Eu84 Eu -0.0206 0.07396 0.54745 0.0
C85 C 0.03633 0.88502 0.21081 0.0
C86 C 0.68446 0.56305 0.12784 0.0
C87 C 0.80872 0.70023 0.09157 0.0
C88 C 0.90964 0.76744 0.22516 0.0
C89 C 0.94622 0.85103 0.15563 0.0
C90 C 0.6711 0.60689 0.06273 0.0
C91 C 0.08312 0.09307 0.20011 0.0
N92 N 0.10934 -0.01209 0.26605 0.0
C93 C 0.17573 0.11242 0.23747 0.0
C94 C -0.00966 -0.02247 0.15081 0.0
Eu95 Eu 0.03206 0.92265 0.40205 0.0
N96 N 0.87789 0.70077 0.32061 0.0
C97 C 0.73192 0.51281 0.35996 0.0
C98 C 0.51482 0.34514 0.17808 0.0
C99 C 0.5315 0.31274 0.29253 0.0
H100 H 0.26691 0.17373 0.20211 0.0
H101 H 0.49075 0.29199 0.23485 0.0
H102 H 0.61361 0.53376 0.01446 0.0
H103 H 0.0899 0.1684 0.19694 0.0
H104 H 0.74903 0.50809 0.41724 0.0
H105 H 0.17534 0.58912 0.6846 0.0
H106 H 0.56957 0.42812 0.13953 0.0
H107 H 0.20208 0.04004 0.6614 0.0
H108 H 0.06248 0.41232 0.57149 0.0
H109 H 0.10699 0.9371 0.77452 0.0
H110 H 0.84371 0.67992 0.04278 0.0
H111 H 0.23649 0.55675 0.77326 0.0
H112 H 0.50721 0.58253 0.87377 0.0
H113 H 0.9515 -0.01132 0.10951 0.0
H114 H 0.38586 0.36275 0.92661 0.0
N115 N 0.1013 0.33085 0.64435 0.0
C116 C 0.11229 0.42365 0.6213 0.0
C117 C 0.22969 0.48426 0.73654 0.0
C118 C 0.3128 0.42133 0.75743 0.0
C119 C 0.17855 0.5201 0.67788 0.0
C120 C 0.23101 0.42189 0.72399 0.0
H121 H 0.07153 0.05688 0.82954 0.0
N122 N 0.24751 0.21658 0.6801 0.0
C123 C 0.17761 0.05039 0.7672 0.0
C124 C 0.29611 0.32641 0.73919 0.0
C125 C 0.23872 0.11978 0.69969 0.0
C126 C 0.17697 0.11785 0.81597 0.0
C127 C 0.29241 0.26736 0.81202 0.0
O128 O 0.78181 -0.02218 0.59983 0.0
O129 O 0.87388 0.92009 0.4482 0.0
O130 O 0.16027 0.15129 0.36616 0.0
O131 O 0.07056 0.20096 0.43012 0.0
O132 O 0.75421 0.91678 0.51349 0.0
O133 O 0.92192 0.1681 0.52402 0.0
O134 O 0.25363 0.05256 0.38216 0.0
O135 O 0.13752 0.09578 0.4901 0.0
O136 O 0.79621 0.8071 0.56464 0.0
O137 O 0.85093 0.73237 0.48249 0.0
O138 O 0.14999 -0.03153 0.50582 0.0
O139 O 0.09105 0.83009 0.4234 0.0
C140 C 0.75092 0.87307 0.45041 0.0
C141 C 0.77827 0.13486 0.61725 0.0
C142 C 0.68164 0.20875 0.62068 0.0
C143 C 0.69509 0.13622 0.58452 0.0
C144 C 0.76668 0.2951 0.68423 0.0
C145 C 0.83569 0.19686 0.69011 0.0
C146 C 0.84063 0.28608 0.72004 0.0
C147 C 0.1463 0.22667 0.37318 0.0
C148 C 0.81015 0.07869 0.5713 0.0
C149 C 0.37612 0.37043 0.86726 0.0
C150 C 0.43708 0.49005 0.83517 0.0
C151 C 0.20541 0.08727 0.52559 0.0
C152 C 0.30151 0.93846 0.35642 0.0
C153 C 0.30738 0.8557 0.3829 0.0
C154 C 0.38339 0.8504 0.34135 0.0
C155 C 0.47124 0.9455 0.27987 0.0
C156 C 0.37432 0.01635 0.28858 0.0
C157 C 0.46594 0.02789 0.25336 0.0
C158 C 0.78709 0.71389 0.54467 0.0
C159 C 0.22647 0.94914 0.4011 0.0
H160 H 0.64245 0.08233 0.53044 0.0
H161 H 0.77346 0.36677 0.70693 0.0
H162 H 0.88621 0.18715 0.7234 0.0
H163 H 0.89958 0.34588 0.77207 0.0
H164 H 0.2459 0.78932 0.43326 0.0
H165 H 0.53387 0.94677 0.24857 0.0
H166 H 0.34966 0.05697 0.25917 0.0
H167 H 0.52293 0.09086 0.20171 0.0
Zn168 Zn 0.4033 0.64123 0.97074 0.0
Zn169 Zn 0.27631 0.52354 0.44514 0.0
Zn170 Zn 0.42565 0.62249 0.21983 0.0
C171 C 0.59467 0.75977 0.41373 0.0
C172 C 0.22953 0.35738 0.32097 0.0
O173 O 0.41692 0.70183 0.11843 0.0
O174 O 0.39718 0.75994 0.01181 0.0
C175 C 0.61647 0.74396 0.05366 0.0
O176 O 0.56062 0.73638 0.34081 0.0
O177 O 0.49225 0.67567 0.46303 0.0
O178 O 0.25729 0.45452 0.34599 0.0
O179 O 0.2837 0.3873 0.25385 0.0
O180 O 0.52786 0.64081 0.00724 0.0
O181 O 0.56443 0.75813 0.10398 0.0
O182 O 0.30253 0.40476 0.1621 0.0
O183 O 0.33313 0.48815 0.04896 0.0
C184 C 0.28365 0.38538 0.08826 0.0
O185 O 0.38293 0.69473 0.30788 0.0
O186 O 0.29698 0.66777 0.4207 0.0
C187 C 0.37836 0.74199 0.08277 0.0
C188 C 0.35862 0.73619 0.35808 0.0
Zn189 Zn 0.70195 0.43618 0.94472 0.0
Zn190 Zn 0.5881 0.32366 0.47513 0.0
Zn191 Zn 0.55139 0.33573 0.71981 0.0
C192 C 0.69617 0.57395 0.58959 0.0
C193 C 0.3624 0.21394 0.5513 0.0
O194 O 0.59449 0.26325 0.8073 0.0
O195 O 0.68191 0.29254 0.92006 0.0
C196 C 0.74781 0.60079 0.82071 0.0
O197 O 0.67472 0.55442 0.66324 0.0
O198 O 0.65034 0.472 0.55188 0.0
O199 O 0.44743 0.30757 0.50015 0.0
O200 O 0.41524 0.20203 0.60265 0.0
O201 O 0.72046 0.50386 0.84549 0.0
O202 O 0.69331 0.57072 0.75379 0.0
O203 O 0.41698 0.22192 0.84038 0.0
O204 O 0.4859 0.28371 0.96241 0.0
C205 C 0.38342 0.19914 0.9133 0.0
O206 O 0.55849 0.25296 0.61989 0.0
O207 O 0.57798 0.19205 0.51463 0.0
C208 C 0.61969 0.22306 0.85779 0.0
C209 C 0.59586 0.21068 0.58552 0.0
loop_
_geom_bond_atom_site_label_1
_geom_bond_atom_site_label_2
_geom_bond_distance
_geom_bond_site_symmetry_2
_ccdc_geom_bond_type
Eu0 N31 2.657 1_455 S
Eu0 N38 2.609 . S
Eu0 O44 2.558 1_565 S
Eu0 O45 2.612 1_564 S
Eu0 O47 2.339 1_454 S
Eu0 O48 2.563 1_564 S
Eu0 O49 2.419 . S
Eu0 O51 2.380 1_455 S
Eu0 O52 2.432 1_565 S
Eu0 C64 2.848 . S
C1 C4 1.429 . S
C1 C5 1.411 . S
C1 N8 1.377 1_455 S
C2 C4 1.420 . S
C2 C6 1.423 . S
C2 C14 1.392 . S
C3 C5 1.420 . S
C3 C6 1.351 . S
C3 H26 0.931 . S
C4 C1 1.429 . S
C4 C2 1.420 . S
C4 N12 1.362 . S
C5 C1 1.411 . S
C5 C3 1.420 . S
C5 C10 1.395 1_455 S
C6 C2 1.423 . S
C6 C3 1.351 . S
C6 H18 0.930 . S
C7 C9 1.400 . S
C7 C10 1.386 1_565 S
C7 H19 0.930 . S
N8 C1 1.377 1_655 S
N8 C9 1.321 1_545 S
N8 Eu11 2.609 . S
C9 C7 1.400 . S
C9 N8 1.321 1_565 S
C9 H16 0.930 . S
C10 C5 1.395 1_655 S
C10 C7 1.386 1_545 S
C10 H29 0.930 . S
Eu11 N8 2.609 . S
Eu11 N12 2.657 1_655 S
Eu11 O45 2.380 1_655 S
Eu11 O46 2.432 1_545 S
Eu11 O50 2.558 1_545 S
Eu11 O51 2.612 1_546 S
Eu11 O53 2.339 1_656 S
Eu11 O54 2.563 1_546 S
Eu11 O55 2.419 . S
Eu11 C75 2.848 . S
N12 C4 1.362 . S
N12 Eu11 2.657 1_455 S
N12 C13 1.334 . S
C13 N12 1.334 . S
C13 C15 1.413 . S
C13 H20 0.929 . S
C14 C2 1.392 . S
C14 C15 1.367 . S
C14 H22 0.930 . S
C15 C13 1.413 . S
C15 C14 1.367 . S
C15 H17 0.930 . S
H16 C9 0.930 . S
H17 C15 0.930 . S
H18 C6 0.930 . S
H19 C7 0.930 . S
H20 C13 0.929 . S
H21 C35 0.930 . S
H22 C14 0.930 . S
H23 C41 0.930 . S
H24 C32 0.929 . S
H25 C39 0.930 . S
H26 C3 0.931 . S
H27 C33 0.930 . S
H28 C66 0.930 . S
H29 C10 0.930 . S
H30 C65 0.931 . S
N31 Eu0 2.657 1_655 S
N31 C32 1.334 . S
N31 C36 1.362 . S
C32 H24 0.929 . S
C32 N31 1.334 . S
C32 C35 1.413 . S
C33 H27 0.930 . S
C33 C34 1.392 . S
C33 C35 1.367 . S
C34 C33 1.392 . S
C34 C36 1.420 . S
C34 C66 1.423 . S
C35 H21 0.930 . S
C35 C32 1.413 . S
C35 C33 1.367 . S
C36 N31 1.362 . S
C36 C34 1.420 . S
C36 C40 1.429 . S
H37 C42 0.930 . S
N38 Eu0 2.609 . S
N38 C40 1.377 1_455 S
N38 C41 1.321 1_565 S
C39 H25 0.930 . S
C39 C41 1.400 . S
C39 C42 1.386 1_545 S
C40 C36 1.429 . S
C40 N38 1.377 1_655 S
C40 C43 1.411 . S
C41 H23 0.930 . S
C41 N38 1.321 1_545 S
C41 C39 1.400 . S
C42 H37 0.930 . S
C42 C39 1.386 1_565 S
C42 C43 1.395 1_455 S
C43 C40 1.411 . S
C43 C42 1.395 1_655 S
C43 C65 1.420 . S
O44 Eu0 2.558 1_545 S
O44 C64 1.257 1_545 S
O45 Eu0 2.612 1_546 S
O45 Eu11 2.380 1_455 S
O45 C56 1.276 . S
O46 Eu11 2.432 1_565 S
O46 C63 1.264 . S
O47 Eu0 2.339 1_656 S
O47 C63 1.254 . S
O48 Eu0 2.563 1_546 S
O48 C56 1.235 . S
O49 Eu0 2.419 . S
O49 C64 1.249 . S
O50 Eu11 2.558 1_565 S
O50 C75 1.257 1_565 S
O51 Eu0 2.380 1_655 S
O51 Eu11 2.612 1_564 S
O51 C67 1.276 . S
O52 Eu0 2.432 1_545 S
O52 C74 1.264 . S
O53 Eu11 2.339 1_454 S
O53 C74 1.254 . S
O54 Eu11 2.563 1_564 S
O54 C67 1.235 . S
O55 Eu11 2.419 . S
O55 C75 1.249 . S
C56 O45 1.276 . S
C56 O48 1.235 . S
C57 C59 1.393 . S
C57 C61 1.395 . S
C57 C64 1.492 . S
C58 C59 1.392 . S
C58 C60 1.386 . S
C59 C57 1.393 . S
C59 C58 1.392 . S
C59 H76 0.930 . S
C60 C58 1.386 . S
C60 C62 1.395 . S
C60 H77 0.930 . S
C61 C57 1.395 . S
C61 C62 1.379 . S
C61 H78 0.930 1_565 S
C62 C60 1.395 . S
C62 C61 1.379 . S
C62 H79 0.930 . S
C63 O46 1.264 . S
C63 O47 1.254 . S
C64 Eu0 2.848 . S
C64 O44 1.257 1_565 S
C64 O49 1.249 . S
C64 C57 1.492 . S
C65 H30 0.931 . S
C65 C43 1.420 . S
C65 C66 1.351 . S
C66 H28 0.930 . S
C66 C34 1.423 . S
C66 C65 1.351 . S
C67 O51 1.276 . S
C67 O54 1.235 . S
C68 C69 1.393 . S
C68 C72 1.395 . S
C68 C75 1.492 . S
C69 C68 1.393 . S
C69 C70 1.392 . S
C69 H80 0.930 . S
C70 C69 1.392 . S
C70 C71 1.386 . S
C71 C70 1.386 . S
C71 C73 1.395 . S
C71 H81 0.930 . S
C72 C68 1.395 . S
C72 C73 1.379 . S
C72 H82 0.930 1_545 S
C73 C71 1.395 . S
C73 C72 1.379 . S
C73 H83 0.930 . S
C74 O52 1.264 . S
C74 O53 1.254 . S
C75 Eu11 2.848 . S
C75 O50 1.257 1_545 S
C75 O55 1.249 . S
C75 C68 1.492 . S
H76 C59 0.930 . S
H77 C60 0.930 . S
H78 C61 0.930 1_545 S
H79 C62 0.930 . S
H80 C69 0.930 . S
H81 C71 0.930 . S
H82 C72 0.930 1_565 S
H83 C73 0.930 . S
Eu84 N115 2.657 1_655 S
Eu84 N122 2.609 1_655 S
Eu84 O128 2.558 . S
Eu84 O129 2.612 1_545 S
Eu84 O131 2.339 1_655 S
Eu84 O132 2.563 1_545 S
Eu84 O133 2.419 . S
Eu84 O135 2.380 1_655 S
Eu84 O136 2.432 1_545 S
Eu84 C148 2.848 . S
C85 C88 1.429 . S
C85 C89 1.411 . S
C85 N92 1.377 1_665 S
C86 C88 1.420 . S
C86 C90 1.423 . S
C86 C98 1.392 . S
C87 C89 1.420 . S
C87 C90 1.351 . S
C87 H110 0.931 . S
C88 C85 1.429 . S
C88 C86 1.420 . S
C88 N96 1.362 . S
C89 C85 1.411 . S
C89 C87 1.420 . S
C89 C94 1.395 1_665 S
C90 C86 1.423 . S
C90 C87 1.351 . S
C90 H102 0.930 . S
C91 C93 1.400 . S
C91 C94 1.386 . S
C91 H103 0.930 . S
N92 C85 1.377 1_445 S
N92 C93 1.321 . S
N92 Eu95 2.609 1_545 S
C93 C91 1.400 . S
C93 N92 1.321 . S
C93 H100 0.930 . S
C94 C89 1.395 1_445 S
C94 C91 1.386 . S
C94 H113 0.930 . S
Eu95 N92 2.609 1_565 S
Eu95 N96 2.657 1_455 S
Eu95 O129 2.380 1_455 S
Eu95 O130 2.432 1_565 S
Eu95 O134 2.558 1_565 S
Eu95 O135 2.612 1_565 S
Eu95 O137 2.339 1_455 S
Eu95 O138 2.563 1_565 S
Eu95 O139 2.419 . S
Eu95 C159 2.848 . S
N96 C88 1.362 . S
N96 Eu95 2.657 1_655 S
N96 C97 1.334 . S
C97 N96 1.334 . S
C97 C99 1.413 . S
C97 H104 0.929 . S
C98 C86 1.392 . S
C98 C99 1.367 . S
C98 H106 0.930 . S
C99 C97 1.413 . S
C99 C98 1.367 . S
C99 H101 0.930 . S
H100 C93 0.930 . S
H101 C99 0.930 . S
H102 C90 0.930 . S
H103 C91 0.930 . S
H104 C97 0.929 . S
H105 C119 0.930 . S
H106 C98 0.930 . S
H107 C125 0.930 . S
H108 C116 0.929 . S
H109 C123 0.930 . S
H110 C87 0.931 . S
H111 C117 0.930 . S
H112 C150 0.930 . S
H113 C94 0.930 . S
H114 C149 0.931 . S
N115 Eu84 2.657 1_455 S
N115 C116 1.334 . S
N115 C120 1.362 . S
C116 H108 0.929 . S
C116 N115 1.334 . S
C116 C119 1.413 . S
C117 H111 0.930 . S
C117 C118 1.392 . S
C117 C119 1.367 . S
C118 C117 1.392 . S
C118 C120 1.420 . S
C118 C150 1.423 . S
C119 H105 0.930 . S
C119 C116 1.413 . S
C119 C117 1.367 . S
C120 N115 1.362 . S
C120 C118 1.420 . S
C120 C124 1.429 . S
H121 C126 0.930 1_655 S
N122 Eu84 2.609 1_455 S
N122 C124 1.377 . S
N122 C125 1.321 1_445 S
C123 H109 0.930 . S
C123 C125 1.400 . S
C123 C126 1.386 1_665 S
C124 C120 1.429 . S
C124 N122 1.377 . S
C124 C127 1.411 . S
C125 H107 0.930 . S
C125 N122 1.321 1_665 S
C125 C123 1.400 . S
C126 H121 0.930 1_455 S
C126 C123 1.386 1_445 S
C126 C127 1.395 . S
C127 C124 1.411 . S
C127 C126 1.395 . S
C127 C149 1.420 . S
O128 Eu84 2.558 . S
O128 C148 1.257 . S
O129 Eu84 2.612 1_565 S
O129 Eu95 2.380 1_655 S
O129 C140 1.276 . S
O130 Eu95 2.432 1_545 S
O130 C147 1.264 . S
O131 Eu84 2.339 1_455 S
O131 C147 1.254 . S
O132 Eu84 2.563 1_565 S
O132 C140 1.235 . S
O133 Eu84 2.419 . S
O133 C148 1.249 . S
O134 Eu95 2.558 1_545 S
O134 C159 1.257 1_545 S
O135 Eu84 2.380 1_455 S
O135 Eu95 2.612 1_545 S
O135 C151 1.276 . S
O136 Eu84 2.432 1_565 S
O136 C158 1.264 . S
O137 Eu95 2.339 1_655 S
O137 C158 1.254 . S
O138 Eu95 2.563 1_545 S
O138 C151 1.235 . S
O139 Eu95 2.419 . S
O139 C159 1.249 . S
C140 O129 1.276 . S
C140 O132 1.235 . S
C141 C143 1.393 . S
C141 C145 1.395 . S
C141 C148 1.492 . S
C142 C143 1.392 . S
C142 C144 1.386 . S
C143 C141 1.393 . S
C143 C142 1.392 . S
C143 H160 0.930 . S
C144 C142 1.386 . S
C144 C146 1.395 . S
C144 H161 0.930 . S
C145 C141 1.395 . S
C145 C146 1.379 . S
C145 H162 0.930 . S
C146 C144 1.395 . S
C146 C145 1.379 . S
C146 H163 0.930 . S
C147 O130 1.264 . S
C147 O131 1.254 . S
C148 Eu84 2.848 . S
C148 O128 1.257 . S
C148 O133 1.249 . S
C148 C141 1.492 . S
C149 H114 0.931 . S
C149 C127 1.420 . S
C149 C150 1.351 . S
C150 H112 0.930 . S
C150 C118 1.423 . S
C150 C149 1.351 . S
C151 O135 1.276 . S
C151 O138 1.235 . S
C152 C153 1.393 . S
C152 C156 1.395 . S
C152 C159 1.492 . S
C153 C152 1.393 . S
C153 C154 1.392 . S
C153 H164 0.930 . S
C154 C153 1.392 . S
C154 C155 1.386 . S
C155 C154 1.386 . S
C155 C157 1.395 . S
C155 H165 0.930 . S
C156 C152 1.395 . S
C156 C157 1.379 . S
C156 H166 0.930 1_565 S
C157 C155 1.395 . S
C157 C156 1.379 . S
C157 H167 0.930 1_565 S
C158 O136 1.264 . S
C158 O137 1.254 . S
C159 Eu95 2.848 . S
C159 O134 1.257 1_565 S
C159 O139 1.249 . S
C159 C152 1.492 . S
H160 C143 0.930 . S
H161 C144 0.930 . S
H162 C145 0.930 . S
H163 C146 0.930 . S
H164 C153 0.930 . S
H165 C155 0.930 . S
H166 C156 0.930 1_545 S
H167 C157 0.930 1_545 S
Zn168 O174 1.920 . S
Zn168 O180 1.898 . S
Zn168 O183 1.905 . S
Zn169 O177 1.905 . S
Zn169 O178 1.898 . S
Zn169 O186 1.920 . S
Zn170 O173 2.080 . S
Zn170 O176 2.114 . S
Zn170 O179 2.120 . S
Zn170 O181 2.120 . S
Zn170 O182 2.114 . S
Zn170 O185 2.080 . S
C171 O176 1.166 . S
C171 O177 1.182 . S
C172 O178 1.167 . S
C172 O179 1.299 . S
O173 Zn170 2.080 . S
O173 C187 1.305 . S
O174 Zn168 1.920 . S
O174 C187 1.234 . S
C175 O180 1.167 . S
C175 O181 1.299 . S
O176 Zn170 2.114 . S
O176 C171 1.166 . S
O177 Zn169 1.905 . S
O177 C171 1.182 . S
O178 Zn169 1.898 . S
O178 C172 1.167 . S
O179 Zn170 2.120 . S
O179 C172 1.299 . S
O180 Zn168 1.898 . S
O180 C175 1.167 . S
O181 Zn170 2.120 . S
O181 C175 1.299 . S
O182 Zn170 2.114 . S
O182 C184 1.166 . S
O183 Zn168 1.905 . S
O183 C184 1.182 . S
C184 O182 1.166 . S
C184 O183 1.182 . S
O185 Zn170 2.080 . S
O185 C188 1.305 . S
O186 Zn169 1.920 . S
O186 C188 1.234 . S
C187 O173 1.305 . S
C187 O174 1.234 . S
C188 O185 1.305 . S
C188 O186 1.234 . S
Zn189 O195 1.920 . S
Zn189 O201 1.898 . S
Zn189 O204 1.905 . S
Zn190 O198 1.905 . S
Zn190 O199 1.898 . S
Zn190 O207 1.920 . S
Zn191 O194 2.080 . S
Zn191 O197 2.114 . S
Zn191 O200 2.120 . S
Zn191 O202 2.120 . S
Zn191 O203 2.114 . S
Zn191 O206 2.080 . S
C192 O197 1.166 . S
C192 O198 1.182 . S
C193 O199 1.167 . S
C193 O200 1.299 . S
O194 Zn191 2.080 . S
O194 C208 1.305 . S
O195 Zn189 1.920 . S
O195 C208 1.234 . S
C196 O201 1.167 . S
C196 O202 1.299 . S
O197 Zn191 2.114 . S
O197 C192 1.166 . S
O198 Zn190 1.905 . S
O198 C192 1.182 . S
O199 Zn190 1.898 . S
O199 C193 1.167 . S
O200 Zn191 2.120 . S
O200 C193 1.299 . S
O201 Zn189 1.898 . S
O201 C196 1.167 . S
O202 Zn191 2.120 . S
O202 C196 1.299 . S
O203 Zn191 2.114 . S
O203 C205 1.166 . S
O204 Zn189 1.905 . S
O204 C205 1.182 . S
C205 O203 1.166 . S
C205 O204 1.182 . S
O206 Zn191 2.080 . S
O206 C209 1.305 . S
O207 Zn190 1.920 . S
O207 C209 1.234 . S
C208 O194 1.305 . S
C208 O195 1.234 . S
C209 O206 1.305 . S
C209 O207 1.234 . S
C58 C187 1.327 . S
C151 C193 1.576 . S
C74 C184 1.515 . S
C142 C209 1.327 . S
C67 C175 1.578 . S
C192 C158 1.514 . S
C154 C188 1.042 . S
C205 C56 1.658 . S
C172 C147 1.758 . S
C208 C70 1.044 . S
C171 C140 1.658 . S
C196 C63 1.757 . S
