# Generated by pormake.
# Topology pts, (4,4)-cn, num edge types: 1
# Building blocks:
#     Node 0, Type 0, BuildingBlock: NAWXER_clean_sbu_0, # of connection points: 4
#     Node 1, Type 0, BuildingBlock: NAWXER_clean_sbu_0, # of connection points: 4
#     Node 2, Type 1, BuildingBlock: AZAVOO_clean_sbu_0, # of connection points: 4
#     Node 3, Type 1, BuildingBlock: AZAVOO_clean_sbu_0, # of connection points: 4
#     Edge 4, Type (0, 1), BuildingBlock: CIFDUS_clean_linker_0, # of connection points: 2
#     Edge 5, Type (0, 1), BuildingBlock: CIFDUS_clean_linker_0, # of connection points: 2
#     Edge 6, Type (0, 1), BuildingBlock: CIFDUS_clean_linker_0, # of connection points: 2
#     Edge 7, Type (0, 1), BuildingBlock: CIFDUS_clean_linker_0, # of connection points: 2
#     Edge 8, Type (0, 1), BuildingBlock: CIFDUS_clean_linker_0, # of connection points: 2
#     Edge 9, Type (0, 1), BuildingBlock: CIFDUS_clean_linker_0, # of connection points: 2
#     Edge 10, Type (0, 1), BuildingBlock: CIFDUS_clean_linker_0, # of connection points: 2
#     Edge 11, Type (0, 1), BuildingBlock: CIFDUS_clean_linker_0, # of connection points: 2
# Relax obj value: 0.010
# Max RMSD: 0.057
# Mean RMSD: 0.046
data_MOF--net-pts--node1-NAWXER_clean_sbu_0--node2-AZAVOO_clean_sbu_0--edge1-CIFDUS_clean_linker_0
_symmetry_space_group_name_H-M    P1
_symmetry_Int_Tables_number       1
_symmetry_cell_setting            triclinic
loop_
_symmetry_equiv_pos_as_xyz
'x, y, z'
_cell_length_a     19.763046
_cell_length_b     20.689114
_cell_length_c     32.875471
_cell_angle_alpha  89.817639
_cell_angle_beta   96.432014
_cell_angle_gamma 89.916376
loop_
_atom_site_label
_atom_site_type_symbol
_atom_site_fract_x
_atom_site_fract_y
_atom_site_fract_z
_atom_type_partial_charge
C0 C 0.47184 0.07274 0.95809 0.0
C1 C 0.66003 0.08726 0.06829 0.0
O2 O 0.50064 0.01873 0.96841 0.0
Zn3 Zn 0.57905 0.98093 0.01151 0.0
O4 O 0.49204 0.12422 0.97678 0.0
Zn5 Zn 0.56451 0.08416 0.01384 0.0
O6 O 0.63511 0.05157 0.97286 0.0
O7 O 0.64163 0.94499 0.97634 0.0
O8 O 0.62284 0.13432 0.05422 0.0
O9 O 0.64789 0.03015 0.05464 0.0
O10 O 0.52901 0.92587 0.04609 0.0
O11 O 0.50656 0.02947 0.05236 0.0
C12 C 0.66031 0.9982 0.96156 0.0
C13 C 0.49682 0.97061 0.06224 0.0
C14 C 0.9743 0.60877 0.45961 0.0
C15 C 0.99467 0.44246 0.56629 0.0
O16 O 0.92665 0.5887 0.47936 0.0
Zn17 Zn 0.98146 0.52661 0.51364 0.0
O18 O 0.03486 0.5869 0.46815 0.0
Zn19 Zn 0.08944 0.52099 0.50942 0.0
O20 O 0.1246 0.46011 0.47199 0.0
O21 O 1.01258 0.45859 0.47048 0.0
O22 O 0.05132 0.45754 0.55314 0.0
O23 O 0.94007 0.47057 0.5514 0.0
O24 O 0.04274 0.58788 0.55425 0.0
O25 O 0.15054 0.5783 0.54311 0.0
C26 C 0.06717 0.43743 0.45735 0.0
C27 C 0.1053 0.60379 0.56259 0.0
Mg28 Mg 0.11766 0.98121 0.28568 0.0
O29 O 0.02363 0.00607 0.24041 0.0
O30 O 0.93333 0.01279 0.27564 0.0
Mg31 Mg 0.96793 0.98766 0.34242 0.0
C32 C 0.96039 0.0171 0.24227 0.0
C33 C 0.22559 0.96037 0.22546 0.0
O34 O 0.2217 0.90251 0.2416 0.0
O35 O 0.12016 0.08475 0.31078 0.0
O36 O 0.02929 0.08148 0.34575 0.0
O37 O 0.09825 0.87567 0.27737 0.0
O38 O 0.05597 0.93428 0.32438 0.0
C39 C 0.08015 0.11123 0.33381 0.0
C40 C 0.06082 0.87895 0.30716 0.0
O41 O 0.18861 0.00555 0.23729 0.0
Mg42 Mg 0.02092 0.99496 0.74158 0.0
O43 O 0.12654 0.0054 0.77946 0.0
O44 O 0.2044 0.9917 0.7356 0.0
Mg45 Mg 0.15144 0.98169 0.6709 0.0
C46 C 0.18838 0.00153 0.77161 0.0
C47 C 0.91563 0.06214 0.79385 0.0
O48 O 0.90035 0.09545 0.75997 0.0
O49 O 0.02876 0.09868 0.71811 0.0
O50 O 0.10883 0.08436 0.67582 0.0
O51 O 0.02481 0.88779 0.74762 0.0
O52 O 0.06379 0.94097 0.69694 0.0
C53 C 0.0673 0.12041 0.69252 0.0
C54 C 0.0551 0.88657 0.71474 0.0
O55 O 0.96524 0.02265 0.79626 0.0
H56 H 0.41516 0.05616 0.09552 0.0
H57 H 0.46843 0.85364 0.09653 0.0
H58 H 0.3888 0.83272 0.14703 0.0
H59 H 0.30509 0.8725 0.19132 0.0
H60 H 0.25226 0.07524 0.18927 0.0
H61 H 0.33103 0.0954 0.13856 0.0
C62 C 0.40958 0.0073 0.1067 0.0
C63 C 0.44804 0.95653 0.09229 0.0
C64 C 0.36383 0.99571 0.13555 0.0
C65 C 0.43958 0.89361 0.10707 0.0
C66 C 0.39409 0.88166 0.13598 0.0
C67 C 0.31074 0.92114 0.1798 0.0
C68 C 0.27283 0.97234 0.19424 0.0
C69 C 0.35611 0.93242 0.15052 0.0
C70 C 0.28071 0.03495 0.17879 0.0
C71 C 0.3258 0.04654 0.14978 0.0
H72 H 0.10388 0.38751 0.60957 0.0
H73 H 0.88445 0.37858 0.59162 0.0
H74 H 0.88698 0.28183 0.63503 0.0
H75 H 0.95309 0.19228 0.67109 0.0
H76 H 0.17248 0.1998 0.68361 0.0
H77 H 0.1685 0.30511 0.64984 0.0
C78 C 0.05638 0.36492 0.61538 0.0
C79 C 0.99412 0.3897 0.59684 0.0
C80 C 0.05837 0.30886 0.63943 0.0
C81 C 0.93314 0.36027 0.60531 0.0
C82 C 0.93459 0.30481 0.63003 0.0
C83 C 0.99976 0.21798 0.66725 0.0
C84 C 0.06302 0.18867 0.67968 0.0
C85 C 0.99707 0.27761 0.64631 0.0
C86 C 0.12332 0.22163 0.67412 0.0
C87 C 0.12106 0.28161 0.6547 0.0
H88 H 0.78385 0.03357 0.07127 0.0
H89 H 0.66114 0.15668 0.13903 0.0
H90 H 0.74612 0.14825 0.19935 0.0
H91 H 0.84916 0.09553 0.23447 0.0
H92 H 0.97319 0.97581 0.16507 0.0
H93 H 0.8939 0.99332 0.10345 0.0
C94 C 0.77658 0.05966 0.09905 0.0
C95 C 0.71652 0.09538 0.10105 0.0
C96 C 0.8253 0.05435 0.13329 0.0
C97 C 0.70739 0.12936 0.13687 0.0
C98 C 0.75558 0.12391 0.17139 0.0
C99 C 0.85898 0.07378 0.20572 0.0
C100 C 0.91623 0.03352 0.20436 0.0
C101 C 0.81366 0.08487 0.17028 0.0
C102 C 0.92929 0.00668 0.16686 0.0
C103 C 0.88394 0.01657 0.13168 0.0
H104 H 0.05872 0.61189 0.63582 0.0
H105 H 0.18593 0.70976 0.55714 0.0
H106 H 0.18763 0.80631 0.60047 0.0
H107 H 0.13847 0.86675 0.65479 0.0
H108 H 1.01296 0.76657 0.73391 0.0
H109 H 0.02572 0.66655 0.69662 0.0
C110 C 0.08826 0.65389 0.62887 0.0
C111 C 0.12172 0.65438 0.5934 0.0
C112 C 0.08847 0.70887 0.65363 0.0
C113 C 0.1602 0.7085 0.58455 0.0
C114 C 0.1605 0.76379 0.60905 0.0
C115 C 0.11492 0.82289 0.66435 0.0
C116 C 0.07377 0.82454 0.69665 0.0
C117 C 0.1226 0.76526 0.64277 0.0
C118 C 0.04448 0.76687 0.709 0.0
C119 C 0.05153 0.7096 0.6876 0.0
H120 H 0.45361 0.98876 0.89587 0.0
H121 H 0.3627 0.15613 0.94573 0.0
H122 H 0.26405 0.14718 0.89343 0.0
H123 H 0.20291 0.08934 0.83391 0.0
H124 H 0.3001 0.92628 0.78303 0.0
H125 H 0.39675 0.93525 0.83576 0.0
C126 C 0.4123 0.02349 0.89528 0.0
C127 C 0.4151 0.07277 0.92471 0.0
C128 C 0.35661 0.01825 0.86519 0.0
C129 C 0.36174 0.11794 0.92322 0.0
C130 C 0.30521 0.1125 0.89353 0.0
C131 C 0.24515 0.05565 0.83477 0.0
C132 C 0.24434 0.00674 0.80505 0.0
C133 C 0.3018 0.06238 0.86456 0.0
C134 C 0.29974 0.9641 0.80574 0.0
C135 C 0.35499 0.96928 0.83578 0.0
H136 H 0.16974 0.36598 0.42907 0.0
H137 H 0.95108 0.39016 0.4167 0.0
H138 H 0.93717 0.29535 0.37348 0.0
H139 H 0.985 0.19936 0.34531 0.0
H140 H 0.20237 0.17158 0.35627 0.0
H141 H 0.21901 0.27452 0.39314 0.0
C142 C 0.11921 0.35094 0.41644 0.0
C143 C 0.06156 0.3846 0.42686 0.0
C144 C 0.11122 0.2956 0.39145 0.0
C145 C 0.99642 0.36477 0.40986 0.0
C146 C 0.98822 0.31047 0.38501 0.0
C147 C 0.03611 0.21632 0.35528 0.0
C148 C 0.09232 0.17786 0.34868 0.0
C149 C 0.04499 0.2746 0.37662 0.0
C150 C 0.15832 0.20062 0.36106 0.0
C151 C 0.16773 0.25913 0.38241 0.0
H152 H 0.68938 0.09828 0.91286 0.0
H153 H 0.74771 0.90174 0.9444 0.0
H154 H 0.83536 0.90611 0.8975 0.0
H155 H 0.89404 0.96519 0.84669 0.0
H156 H 0.83075 0.15923 0.81213 0.0
H157 H 0.74691 0.15676 0.86154 0.0
C158 C 0.7213 0.05636 0.90956 0.0
C159 C 0.71201 -0.00025 0.93219 0.0
C160 C 0.77098 0.05898 0.88221 0.0
C161 C 0.7535 0.94577 0.92723 0.0
C162 C 0.80384 0.94836 0.90055 0.0
C163 C 0.86248 0.00725 0.85036 0.0
C164 C 0.86902 0.06263 0.82608 0.0
C165 C 0.81301 0.00469 0.87788 0.0
C166 C 0.82684 0.11621 0.83058 0.0
C167 C 0.77879 0.11471 0.85871 0.0
H168 H 0.02024 0.60881 0.386 0.0
H169 H 0.90639 0.72305 0.46404 0.0
H170 H 0.9157 0.81763 0.41974 0.0
H171 H 0.97247 0.87054 0.36531 0.0
H172 H 0.08523 0.75431 0.28721 0.0
H173 H 0.0591 0.65738 0.32462 0.0
C174 C 0.99588 0.65407 0.39257 0.0
C175 C 0.96322 0.65957 0.42818 0.0
C176 C 1.00202 0.70787 0.36727 0.0
C177 C 0.93144 0.71794 0.43655 0.0
C178 C 0.93741 0.77203 0.41148 0.0
C179 C 0.99001 0.82389 0.35586 0.0
C180 C 0.03188 0.81995 0.32397 0.0
C181 C 0.97503 0.76812 0.3777 0.0
C182 C 0.05346 0.75891 0.31184 0.0
C183 C 0.0388 0.70338 0.33334 0.0
loop_
_geom_bond_atom_site_label_1
_geom_bond_atom_site_label_2
_geom_bond_distance
_geom_bond_site_symmetry_2
_ccdc_geom_bond_type
C0 O2 1.247 1_545 S
C0 O4 1.258 . S
C1 O8 1.247 . S
C1 O9 1.258 1_545 S
O2 C0 1.247 1_565 S
O2 Zn3 2.028 1_556 S
Zn3 O2 2.028 1_554 S
Zn3 O7 2.035 1_554 S
Zn3 O9 2.035 . S
Zn3 O10 2.028 . S
O4 C0 1.258 . S
O4 Zn5 2.035 1_556 S
Zn5 O4 2.035 1_554 S
Zn5 O6 2.028 1_554 S
Zn5 O8 2.028 . S
Zn5 O11 2.035 . S
O6 Zn5 2.028 1_556 S
O6 C12 1.247 . S
O7 Zn3 2.035 1_556 S
O7 C12 1.258 1_565 S
O8 C1 1.247 . S
O8 Zn5 2.028 . S
O9 C1 1.258 1_565 S
O9 Zn3 2.035 . S
O10 Zn3 2.028 . S
O10 C13 1.247 1_565 S
O11 Zn5 2.035 . S
O11 C13 1.258 . S
C12 O6 1.247 . S
C12 O7 1.258 1_545 S
C13 O10 1.247 1_545 S
C13 O11 1.258 . S
C14 O16 1.247 1_455 S
C14 O18 1.258 . S
C15 O22 1.247 . S
C15 O23 1.258 1_455 S
O16 C14 1.247 1_655 S
O16 Zn17 2.028 . S
Zn17 O16 2.028 . S
Zn17 O21 2.035 . S
Zn17 O23 2.035 . S
Zn17 O24 2.028 . S
O18 C14 1.258 . S
O18 Zn19 2.035 . S
Zn19 O18 2.035 . S
Zn19 O20 2.028 . S
Zn19 O22 2.028 . S
Zn19 O25 2.035 . S
O20 Zn19 2.028 . S
O20 C26 1.247 . S
O21 Zn17 2.035 . S
O21 C26 1.258 1_655 S
O22 C15 1.247 . S
O22 Zn19 2.028 . S
O23 C15 1.258 1_655 S
O23 Zn17 2.035 . S
O24 Zn17 2.028 . S
O24 C27 1.247 1_655 S
O25 Zn19 2.035 . S
O25 C27 1.258 . S
C26 O20 1.247 . S
C26 O21 1.258 1_455 S
C27 O24 1.247 1_455 S
C27 O25 1.258 . S
Mg28 O29 2.028 . S
Mg28 O35 1.986 . S
Mg28 O37 2.114 1_545 S
Mg28 O38 2.251 1_545 S
Mg28 O41 2.010 . S
O29 Mg28 2.028 . S
O29 C32 1.250 1_455 S
O30 Mg31 2.028 . S
O30 C32 1.248 . S
Mg31 O30 2.028 . S
Mg31 O36 2.032 1_655 S
Mg31 O38 2.079 1_645 S
C32 O29 1.250 1_655 S
C32 O30 1.248 . S
C33 O34 1.264 . S
C33 O41 1.249 . S
O34 C33 1.264 . S
O35 Mg28 1.986 . S
O35 C39 1.246 . S
O36 Mg31 2.032 1_455 S
O36 C39 1.259 . S
O37 Mg28 2.114 1_565 S
O37 C40 1.252 . S
O38 Mg28 2.251 1_565 S
O38 Mg31 2.079 1_465 S
O38 C40 1.273 . S
C39 O35 1.246 . S
C39 O36 1.259 . S
C40 O37 1.252 . S
C40 O38 1.273 . S
O41 Mg28 2.010 . S
O41 C33 1.249 . S
Mg42 O43 2.028 1_655 S
Mg42 O49 1.985 1_655 S
Mg42 O51 2.114 1_545 S
Mg42 O52 2.251 1_645 S
Mg42 O55 2.010 . S
O43 Mg42 2.028 1_455 S
O43 C46 1.250 . S
O44 Mg45 2.028 . S
O44 C46 1.248 . S
Mg45 O44 2.028 . S
Mg45 O50 2.032 . S
Mg45 O52 2.079 1_545 S
C46 O43 1.250 . S
C46 O44 1.248 . S
C47 O48 1.264 . S
C47 O55 1.249 . S
O48 C47 1.264 . S
O49 Mg42 1.985 1_455 S
O49 C53 1.249 . S
O50 Mg45 2.032 . S
O50 C53 1.259 . S
O51 Mg42 2.114 1_565 S
O51 C54 1.252 1_655 S
O52 Mg42 2.251 1_465 S
O52 Mg45 2.079 1_565 S
O52 C54 1.273 . S
C53 O49 1.249 . S
C53 O50 1.259 . S
C54 O51 1.252 1_455 S
C54 O52 1.273 . S
O55 Mg42 2.010 . S
O55 C47 1.249 . S
H56 C62 0.930 . S
H57 C65 0.930 . S
H58 C66 0.930 . S
H59 C67 0.930 . S
H60 C70 0.930 . S
H61 C71 0.930 . S
C62 H56 0.930 . S
C62 C63 1.355 . S
C62 C64 1.415 . S
C63 C62 1.355 . S
C63 C65 1.419 1_545 S
C64 C62 1.415 . S
C64 C69 1.425 1_545 S
C64 C71 1.409 . S
C65 H57 0.930 . S
C65 C63 1.419 1_565 S
C65 C66 1.362 . S
C66 H58 0.930 . S
C66 C65 1.362 . S
C66 C69 1.409 . S
C67 H59 0.930 . S
C67 C68 1.355 1_565 S
C67 C69 1.415 . S
C68 C67 1.355 1_545 S
C68 C70 1.419 . S
C69 C64 1.425 1_565 S
C69 C66 1.409 . S
C69 C67 1.415 . S
C70 H60 0.930 . S
C70 C68 1.419 . S
C70 C71 1.362 . S
C71 H61 0.930 . S
C71 C64 1.409 . S
C71 C70 1.362 . S
H72 C78 0.930 . S
H73 C81 0.930 . S
H74 C82 0.930 1_655 S
H75 C83 0.930 . S
H76 C86 0.930 . S
H77 C87 0.930 . S
C78 H72 0.930 . S
C78 C79 1.355 . S
C78 C80 1.415 . S
C79 C78 1.355 . S
C79 C81 1.419 . S
C80 C78 1.415 . S
C80 C85 1.425 . S
C80 C87 1.409 . S
C81 H73 0.930 . S
C81 C79 1.419 . S
C81 C82 1.362 . S
C82 H74 0.930 1_455 S
C82 C81 1.362 . S
C82 C85 1.409 . S
C83 H75 0.930 . S
C83 C84 1.355 . S
C83 C85 1.415 . S
C84 C83 1.355 . S
C84 C86 1.419 . S
C85 C80 1.425 . S
C85 C82 1.409 . S
C85 C83 1.415 . S
C86 H76 0.930 . S
C86 C84 1.419 . S
C86 C87 1.362 . S
C87 H77 0.930 . S
C87 C80 1.409 . S
C87 C86 1.362 . S
H88 C94 0.930 . S
H89 C97 0.930 . S
H90 C98 0.930 . S
H91 C99 0.930 . S
H92 C102 0.930 . S
H93 C103 0.930 . S
C94 H88 0.930 . S
C94 C95 1.355 1_565 S
C94 C96 1.415 1_565 S
C95 C94 1.355 1_545 S
C95 C97 1.419 . S
C96 C94 1.415 1_545 S
C96 C101 1.425 . S
C96 C103 1.409 1_545 S
C97 H89 0.930 . S
C97 C95 1.419 . S
C97 C98 1.362 . S
C98 H90 0.930 . S
C98 C97 1.362 . S
C98 C101 1.409 . S
C99 H91 0.930 . S
C99 C100 1.355 . S
C99 C101 1.415 . S
C100 C99 1.355 . S
C100 C102 1.419 1_545 S
C101 C96 1.425 . S
C101 C98 1.409 . S
C101 C99 1.415 . S
C102 H92 0.930 . S
C102 C100 1.419 1_565 S
C102 C103 1.362 . S
C103 H93 0.930 . S
C103 C96 1.409 1_565 S
C103 C102 1.362 . S
H104 C110 0.930 . S
H105 C113 0.930 . S
H106 C114 0.930 . S
H107 C115 0.930 1_655 S
H108 C118 0.930 . S
H109 C119 0.930 . S
C110 H104 0.930 . S
C110 C111 1.355 . S
C110 C112 1.415 . S
C111 C110 1.355 . S
C111 C113 1.419 1_455 S
C112 C110 1.415 . S
C112 C117 1.425 . S
C112 C119 1.409 . S
C113 H105 0.930 . S
C113 C111 1.419 1_655 S
C113 C114 1.362 . S
C114 H106 0.930 . S
C114 C113 1.362 . S
C114 C117 1.409 1_655 S
C115 H107 0.930 1_455 S
C115 C116 1.355 . S
C115 C117 1.415 . S
C116 C115 1.355 . S
C116 C118 1.419 . S
C117 C112 1.425 . S
C117 C114 1.409 1_455 S
C117 C115 1.415 . S
C118 H108 0.930 . S
C118 C116 1.419 . S
C118 C119 1.362 . S
C119 H109 0.930 . S
C119 C112 1.409 . S
C119 C118 1.362 . S
H120 C126 0.930 . S
H121 C129 0.930 . S
H122 C130 0.930 . S
H123 C131 0.930 . S
H124 C134 0.930 . S
H125 C135 0.930 . S
C126 H120 0.930 . S
C126 C127 1.355 . S
C126 C128 1.415 . S
C127 C126 1.355 . S
C127 C129 1.419 1_545 S
C128 C126 1.415 . S
C128 C133 1.425 1_545 S
C128 C135 1.409 . S
C129 H121 0.930 . S
C129 C127 1.419 1_565 S
C129 C130 1.362 . S
C130 H122 0.930 . S
C130 C129 1.362 . S
C130 C133 1.409 . S
C131 H123 0.930 . S
C131 C132 1.355 1_565 S
C131 C133 1.415 . S
C132 C131 1.355 1_545 S
C132 C134 1.419 . S
C133 C128 1.425 1_565 S
C133 C130 1.409 . S
C133 C131 1.415 . S
C134 H124 0.930 . S
C134 C132 1.419 . S
C134 C135 1.362 . S
C135 H125 0.930 . S
C135 C128 1.409 . S
C135 C134 1.362 . S
H136 C142 0.930 . S
H137 C145 0.930 1_655 S
H138 C146 0.930 . S
H139 C147 0.930 1_655 S
H140 C150 0.930 . S
H141 C151 0.930 . S
C142 H136 0.930 . S
C142 C143 1.355 . S
C142 C144 1.415 . S
C143 C142 1.355 . S
C143 C145 1.419 . S
C144 C142 1.415 . S
C144 C149 1.425 . S
C144 C151 1.409 . S
C145 H137 0.930 1_455 S
C145 C143 1.419 . S
C145 C146 1.362 1_455 S
C146 H138 0.930 . S
C146 C145 1.362 1_655 S
C146 C149 1.409 1_655 S
C147 H139 0.930 1_455 S
C147 C148 1.355 . S
C147 C149 1.415 . S
C148 C147 1.355 . S
C148 C150 1.419 . S
C149 C144 1.425 . S
C149 C146 1.409 1_455 S
C149 C147 1.415 . S
C150 H140 0.930 . S
C150 C148 1.419 . S
C150 C151 1.362 . S
C151 H141 0.930 . S
C151 C144 1.409 . S
C151 C150 1.362 . S
H152 C158 0.930 . S
H153 C161 0.930 . S
H154 C162 0.930 . S
H155 C163 0.930 . S
H156 C166 0.930 . S
H157 C167 0.930 . S
C158 H152 0.930 . S
C158 C159 1.355 . S
C158 C160 1.415 . S
C159 C158 1.355 . S
C159 C161 1.419 . S
C160 C158 1.415 . S
C160 C165 1.425 . S
C160 C167 1.409 . S
C161 H153 0.930 . S
C161 C159 1.419 . S
C161 C162 1.362 . S
C162 H154 0.930 . S
C162 C161 1.362 . S
C162 C165 1.409 . S
C163 H155 0.930 . S
C163 C164 1.355 . S
C163 C165 1.415 . S
C164 C163 1.355 . S
C164 C166 1.419 . S
C165 C160 1.425 . S
C165 C162 1.409 . S
C165 C163 1.415 . S
C166 H156 0.930 . S
C166 C164 1.419 . S
C166 C167 1.362 . S
C167 H157 0.930 . S
C167 C160 1.409 . S
C167 C166 1.362 . S
H168 C174 0.930 . S
H169 C177 0.930 . S
H170 C178 0.930 . S
H171 C179 0.930 1_655 S
H172 C182 0.930 . S
H173 C183 0.930 . S
C174 H168 0.930 . S
C174 C175 1.355 . S
C174 C176 1.415 . S
C175 C174 1.355 . S
C175 C177 1.419 1_455 S
C176 C174 1.415 . S
C176 C181 1.425 . S
C176 C183 1.409 . S
C177 H169 0.930 . S
C177 C175 1.419 1_655 S
C177 C178 1.362 . S
C178 H170 0.930 . S
C178 C177 1.362 . S
C178 C181 1.409 1_655 S
C179 H171 0.930 1_455 S
C179 C180 1.355 . S
C179 C181 1.415 . S
C180 C179 1.355 . S
C180 C182 1.419 . S
C181 C176 1.425 . S
C181 C178 1.409 1_455 S
C181 C179 1.415 . S
C182 H172 0.930 . S
C182 C180 1.419 . S
C182 C183 1.362 . S
C183 H173 0.930 . S
C183 C176 1.409 . S
C183 C182 1.362 . S
C68 C33 1.232 . S
C63 C13 1.468 . S
C84 C53 1.403 . S
C79 C15 1.459 . S
C100 C32 1.470 . S
C95 C1 1.469 . S
C116 C54 1.482 . S
C111 C27 1.480 . S
C132 C46 1.413 . S
C127 C0 1.478 . S
C148 C39 1.427 . S
C143 C26 1.459 . S
C164 C47 1.187 . S
C159 C12 1.470 . S
C175 C14 1.479 . S
C180 C40 1.478 . S
