# Generated by pormake.
# Topology scu, (8,4)-cn, num edge types: 1
# Building blocks:
#     Node 0, Type 0, BuildingBlock: GIZVER_clean_sbu_0, # of connection points: 8
#     Node 1, Type 1, BuildingBlock: ESEHIV_clean_sbu_0, # of connection points: 4
#     Node 2, Type 1, BuildingBlock: ESEHIV_clean_sbu_0, # of connection points: 4
#     Edge 3, Type (0, 1), None
#     Edge 4, Type (0, 1), None
#     Edge 5, Type (0, 1), None
#     Edge 6, Type (0, 1), None
#     Edge 7, Type (0, 1), None
#     Edge 8, Type (0, 1), None
#     Edge 9, Type (0, 1), None
#     Edge 10, Type (0, 1), None
# Relax obj value: 0.028
# Max RMSD: 0.149
# Mean RMSD: 0.112
data_MOF--net-scu--node1-GIZVER_clean_sbu_0--node2-ESEHIV_clean_sbu_0--edge1-none
_symmetry_space_group_name_H-M    P1
_symmetry_Int_Tables_number       1
_symmetry_cell_setting            triclinic
loop_
_symmetry_equiv_pos_as_xyz
'x, y, z'
_cell_length_a     12.033788
_cell_length_b     13.214147
_cell_length_c     11.85717
_cell_angle_alpha  112.83159
_cell_angle_beta   82.514238
_cell_angle_gamma 110.70549
loop_
_atom_site_label
_atom_site_type_symbol
_atom_site_fract_x
_atom_site_fract_y
_atom_site_fract_z
_atom_type_partial_charge
Co0 Co 0.07769 0.93967 0.2137 0.0
Co1 Co 0.18138 0.14878 0.26246 0.0
Co2 Co 0.05421 0.07895 0.01998 0.0
O3 O 0.1413 1.02671 0.10808 0.0
H4 H 0.21107 1.01177 0.06481 0.0
O5 O 0.97634 0.14409 0.94277 0.0
Co6 Co 0.05481 0.20499 0.82167 0.0
Co7 Co 0.87083 0.03997 0.8267 0.0
H8 H 0.9367 0.19424 1.00193 0.0
O9 O 0.33824 0.20791 0.30966 0.0
O10 O 0.18189 0.06859 0.3519 0.0
O11 O 0.07409 0.23585 0.33354 0.0
O12 O 0.08802 0.24222 0.15047 0.0
O13 O 0.20454 0.12722 0.93331 0.0
O14 O 0.12336 0.27071 0.71282 0.0
O15 O 1.01204 0.33298 0.87608 0.0
O16 O 0.12234 0.08592 0.75648 0.0
O17 O 1.0202 0.91983 0.88326 0.0
O18 O 0.88142 0.88453 0.75116 0.0
O19 O 0.90821 0.1111 0.71374 0.0
O20 O 0.74038 0.07556 0.82604 0.0
C21 C 0.11924 0.82369 0.26492 0.0
C22 C 0.87395 1.00195 0.19455 0.0
C23 C 0.05079 0.27416 0.26055 0.0
C24 C 0.29623 0.12651 0.35466 0.0
C25 C 0.07942 0.35003 0.78468 0.0
C26 C 0.20396 0.08661 0.81629 0.0
C27 C 0.95608 0.8546 0.78615 0.0
C28 C 0.79726 0.10707 0.73771 0.0
O29 O 1.0266 0.85528 0.30648 0.0
O30 O 0.18606 0.86257 0.18392 0.0
O31 O 0.89914 1.01814 0.094 0.0
O32 O 0.95212 1.00489 0.26016 0.0
Cu33 Cu 0.05142 0.57955 0.53825 0.0
N34 N 0.12702 0.56853 0.66227 0.0
N35 N 0.10338 0.44963 0.76373 0.0
C36 C 0.12585 0.46316 0.65467 0.0
C37 C 0.09684 0.55137 0.84516 0.0
C38 C 0.11393 0.62478 0.78366 0.0
O39 O 0.99082 0.41687 0.42653 0.0
C40 C 1.00353 0.76786 0.69448 0.0
O41 O 0.1192 0.80071 0.68023 0.0
H42 H 0.12185 0.39158 0.56858 0.0
H43 H 0.10269 0.70864 0.82596 0.0
N44 N 0.13884 0.66573 0.44104 0.0
N45 N 0.14921 0.75926 0.31489 0.0
C46 C 0.0867 0.72156 0.40225 0.0
C47 C 0.23924 0.66759 0.37493 0.0
C48 C 0.24572 0.72527 0.29649 0.0
C49 C 1.01912 0.38144 0.31358 0.0
O50 O 1.04563 0.45141 0.253 0.0
H51 H 1.00114 0.73068 0.43496 0.0
H52 H 0.29969 0.62462 0.37824 0.0
O53 O 0.94181 0.66336 0.63142 0.0
H54 H 0.07612 0.56977 0.94128 0.0
H55 H 0.31512 0.74009 0.23104 0.0
Cu56 Cu 0.54507 0.07458 0.51362 0.0
N57 N 0.42299 1.0037 0.60677 0.0
N58 N 0.28863 0.04102 0.75388 0.0
C59 C 0.32637 0.03844 0.64171 0.0
C60 C 0.36027 1.00309 0.79298 0.0
C61 C 0.44105 0.97784 0.70152 0.0
O62 O 0.47329 0.16107 0.46014 0.0
C63 C 0.72143 0.08067 0.63772 0.0
O64 O 0.67602 0.96985 0.5698 0.0
H65 H 0.29534 0.08097 0.59771 0.0
H66 H 0.51502 0.95433 0.71177 0.0
N67 N 0.6085 0.98951 0.36623 0.0
N68 N 0.76048 0.98371 0.23488 0.0
C69 C 0.72715 1.01098 0.35209 0.0
C70 C 0.56693 0.94633 0.2502 0.0
C71 C 0.66048 0.94389 0.16949 0.0
C72 C 0.37822 0.09069 0.3992 0.0
O73 O 0.34583 0.98103 0.38499 0.0
H74 H 0.79164 0.0619 0.42519 0.0
H75 H 0.47735 0.92756 0.22403 0.0
O76 O 0.67835 0.15344 0.62957 0.0
H77 H 0.35746 0.99819 0.88241 0.0
H78 H 0.65573 0.91806 0.07118 0.0
loop_
_geom_bond_atom_site_label_1
_geom_bond_atom_site_label_2
_geom_bond_distance
_geom_bond_site_symmetry_2
_ccdc_geom_bond_type
Co0 O3 2.042 1_565 S
Co0 O10 2.264 1_565 S
Co0 O29 2.286 1_455 S
Co0 O30 2.069 . S
Co0 O32 2.015 1_465 S
Co1 O3 2.122 . S
Co1 O9 2.073 . S
Co1 O10 2.327 . S
Co1 O11 1.976 . S
Co2 O3 2.087 . S
Co2 O5 2.087 1_454 S
Co2 O12 2.111 . S
Co2 O13 2.143 1_554 S
Co2 O17 2.111 1_444 S
Co2 O31 2.143 1_445 S
O3 Co0 2.042 1_545 S
O3 Co1 2.122 . S
O3 Co2 2.087 . S
O3 H4 0.980 1_545 S
H4 O3 0.980 1_565 S
O5 Co2 2.087 1_656 S
O5 Co6 2.042 1_655 S
O5 Co7 2.122 1_545 S
O5 H8 0.980 . S
Co6 O5 2.042 1_455 S
Co6 O14 2.286 . S
Co6 O15 2.069 1_455 S
Co6 O16 2.015 . S
Co6 O19 2.264 1_445 S
Co7 O5 2.122 1_565 S
Co7 O18 1.976 . S
Co7 O19 2.327 . S
Co7 O20 2.073 . S
H8 O5 0.980 . S
O9 Co1 2.073 . S
O9 C24 1.245 . S
O10 Co0 2.264 1_545 S
O10 Co1 2.327 . S
O10 C24 1.257 . S
O11 Co1 1.976 . S
O11 C23 1.251 . S
O12 Co2 2.111 . S
O12 C23 1.274 . S
O13 Co2 2.143 1_556 S
O13 C26 1.246 . S
O14 Co6 2.286 . S
O14 C25 1.259 1_455 S
O15 Co6 2.069 1_655 S
O15 C25 1.289 . S
O16 Co6 2.015 . S
O16 C26 1.257 . S
O17 Co2 2.111 1_666 S
O17 C27 1.274 . S
O18 Co7 1.976 . S
O18 C27 1.251 . S
O19 Co6 2.264 1_665 S
O19 Co7 2.327 . S
O19 C28 1.257 1_565 S
O20 Co7 2.073 . S
O20 C28 1.245 1_565 S
C21 O29 1.259 1_455 S
C21 O30 1.289 . S
C22 O31 1.247 1_545 S
C22 O32 1.257 . S
C23 O11 1.251 . S
C23 O12 1.274 . S
C24 O9 1.245 . S
C24 O10 1.257 . S
C25 O14 1.259 1_655 S
C25 O15 1.289 . S
C26 O13 1.246 . S
C26 O16 1.257 . S
C27 O17 1.274 . S
C27 O18 1.251 . S
C28 O19 1.257 1_545 S
C28 O20 1.245 1_545 S
O29 Co0 2.286 1_655 S
O29 C21 1.259 1_655 S
O30 Co0 2.069 . S
O30 C21 1.289 . S
O31 Co2 2.143 1_665 S
O31 C22 1.247 1_565 S
O32 Co0 2.015 1_645 S
O32 C22 1.257 . S
Cu33 N34 1.999 . S
Cu33 O39 1.974 . S
Cu33 N44 1.985 . S
Cu33 O53 1.959 . S
N34 Cu33 1.999 . S
N34 C36 1.263 . S
N34 C38 1.389 . S
N35 C36 1.358 . S
N35 C37 1.400 . S
C36 N34 1.263 . S
C36 N35 1.358 . S
C36 H42 0.930 1_655 S
C37 N35 1.400 . S
C37 C38 1.351 . S
C37 H54 0.930 . S
C38 N34 1.389 . S
C38 C37 1.351 . S
C38 H43 0.930 . S
O39 Cu33 1.974 . S
O39 C49 1.282 1_655 S
C40 O41 1.261 . S
C40 O53 1.251 1_455 S
O41 C40 1.261 . S
H42 C36 0.930 1_455 S
H43 C38 0.930 . S
N44 Cu33 1.985 . S
N44 C46 1.335 . S
N44 C47 1.390 1_655 S
N45 C46 1.345 . S
N45 C48 1.336 1_655 S
C46 N44 1.335 . S
C46 N45 1.345 . S
C46 H51 0.930 . S
C47 N44 1.390 1_455 S
C47 C48 1.346 . S
C47 H52 0.930 . S
C48 N45 1.336 1_455 S
C48 C47 1.346 . S
C48 H55 0.929 . S
C49 O39 1.282 1_455 S
C49 O50 1.216 . S
O50 C49 1.216 . S
H51 C46 0.930 . S
H52 C47 0.930 . S
O53 Cu33 1.959 . S
O53 C40 1.251 1_655 S
H54 C37 0.930 . S
H55 C48 0.929 . S
Cu56 N57 1.999 . S
Cu56 O62 1.974 . S
Cu56 N67 1.985 . S
Cu56 O76 1.959 . S
N57 Cu56 1.999 . S
N57 C59 1.263 . S
N57 C61 1.389 . S
N58 C59 1.358 . S
N58 C60 1.400 . S
C59 N57 1.263 . S
C59 N58 1.358 . S
C59 H65 0.930 . S
C60 N58 1.400 . S
C60 C61 1.351 . S
C60 H77 0.930 . S
C61 N57 1.389 . S
C61 C60 1.351 . S
C61 H66 0.930 . S
O62 Cu56 1.974 . S
O62 C72 1.282 1_545 S
C63 O64 1.261 1_545 S
C63 O76 1.251 . S
O64 C63 1.261 1_565 S
H65 C59 0.930 . S
H66 C61 0.930 . S
N67 Cu56 1.985 . S
N67 C69 1.335 . S
N67 C70 1.390 . S
N68 C69 1.345 . S
N68 C71 1.336 . S
C69 N67 1.335 . S
C69 N68 1.345 . S
C69 H74 0.930 . S
C70 N67 1.390 . S
C70 C71 1.346 . S
C70 H75 0.930 1_545 S
C71 N68 1.336 . S
C71 C70 1.346 . S
C71 H78 0.929 1_545 S
C72 O62 1.282 1_565 S
C72 O73 1.216 . S
O73 C72 1.216 . S
H74 C69 0.930 . S
H75 C70 0.930 1_565 S
O76 Cu56 1.959 . S
O76 C63 1.251 . S
H77 C60 0.930 . S
H78 C71 0.929 1_565 S
C23 C49 1.386 . S
C22 N68 1.372 . S
C21 N45 1.541 1_455 S
C24 C72 1.864 1_545 S
C27 C40 1.733 1_655 S
C26 N58 1.412 . S
N35 C25 1.532 . S
C28 C63 1.763 . S
