# Generated by pormake.
# Topology bcu-b, (8,8)-cn, num edge types: 1
# Building blocks:
#     Node 0, Type 0, BuildingBlock: TAGTUT_clean_sbu_1, # of connection points: 8
#     Node 1, Type 1, BuildingBlock: GIZVER_clean_sbu_0, # of connection points: 8
#     Edge 2, Type (0, 1), BuildingBlock: EYOCIG_clean_linker_4, # of connection points: 2
#     Edge 3, Type (0, 1), BuildingBlock: EYOCIG_clean_linker_4, # of connection points: 2
#     Edge 4, Type (0, 1), BuildingBlock: EYOCIG_clean_linker_4, # of connection points: 2
#     Edge 5, Type (0, 1), BuildingBlock: EYOCIG_clean_linker_4, # of connection points: 2
#     Edge 6, Type (0, 1), BuildingBlock: EYOCIG_clean_linker_4, # of connection points: 2
#     Edge 7, Type (0, 1), BuildingBlock: EYOCIG_clean_linker_4, # of connection points: 2
#     Edge 8, Type (0, 1), BuildingBlock: EYOCIG_clean_linker_4, # of connection points: 2
#     Edge 9, Type (0, 1), BuildingBlock: EYOCIG_clean_linker_4, # of connection points: 2
# Relax obj value: 0.100
# Max RMSD: 0.172
# Mean RMSD: 0.167
data_MOF--net-bcu-b--node1-TAGTUT_clean_sbu_1--node2-GIZVER_clean_sbu_0--edge1-EYOCIG_clean_linker_4
_symmetry_space_group_name_H-M    P1
_symmetry_Int_Tables_number       1
_symmetry_cell_setting            triclinic
loop_
_symmetry_equiv_pos_as_xyz
'x, y, z'
_cell_length_a     17.84247
_cell_length_b     17.866865
_cell_length_c     14.832722
_cell_angle_alpha  87.681291
_cell_angle_beta   94.111265
_cell_angle_gamma 111.04734
loop_
_atom_site_label
_atom_site_type_symbol
_atom_site_fract_x
_atom_site_fract_y
_atom_site_fract_z
_atom_type_partial_charge
C0 C 0.81357 0.15682 0.1103 0.0
C1 C 0.87653 0.17681 0.83573 0.0
C2 C 0.86555 0.87498 0.87007 0.0
Mg3 Mg 0.9727 0.18801 0.01746 0.0
O4 O 0.93545 0.0763 0.03255 0.0
Mg5 Mg 0.82618 1.01439 0.97552 0.0
Mg6 Mg 0.00065 0.01992 0.98218 0.0
O7 O 0.06573 0.96348 0.93175 0.0
Mg8 Mg 0.02844 0.85174 0.94667 0.0
Mg9 Mg 0.17503 0.02532 -0.0115 0.0
C10 C 0.13594 0.16501 0.09369 0.0
C11 C 0.12598 0.14452 0.8458 0.0
O12 O 0.78008 0.08893 0.07057 0.0
O13 O 0.88622 0.20311 0.10014 0.0
O14 O 0.83175 0.10778 0.86308 0.0
O15 O 0.94151 0.21811 0.87975 0.0
O16 O 0.09474 0.21063 0.07704 0.0
O17 O 0.11036 0.09095 0.07138 0.0
C18 C 0.87508 0.89523 0.11842 0.0
O19 O 0.94748 0.92094 0.09282 0.0
O20 O 0.82192 0.92242 0.08495 0.0
O21 O 0.22093 0.95078 0.89326 0.0
O22 O 0.11479 0.83655 0.86391 0.0
O23 O 0.16958 0.9319 0.10087 0.0
C24 C 0.1874 0.88286 0.8536 0.0
O25 O 0.05974 0.8216 0.08436 0.0
O26 O 0.90657 0.8292 0.88668 0.0
C27 C 0.12481 0.86287 0.12827 0.0
O28 O 0.89117 0.94888 0.89301 0.0
O29 O 0.05365 0.11886 0.87155 0.0
O30 O 0.17917 0.11731 0.87913 0.0
Co31 Co 0.57033 0.37397 0.43941 0.0
Co32 Co 0.5652 0.39777 0.60301 0.0
Co33 Co 0.50062 0.51976 0.48225 0.0
O34 O 0.58175 0.46712 0.50625 0.0
H35 H 0.63625 0.50541 0.50977 0.0
O36 O 0.41941 0.5723 0.45826 0.0
Co37 Co 0.43085 0.66544 0.52502 0.0
Co38 Co 0.43588 0.6416 0.36154 0.0
H39 H 0.36492 0.53399 0.4548 0.0
O40 O 0.65384 0.39475 0.66867 0.0
O41 O 0.58423 0.31414 0.55288 0.0
O42 O 0.46093 0.36351 0.65081 0.0
O43 O 0.41671 0.44628 0.56392 0.0
O44 O 0.55414 0.59316 0.58439 0.0
O45 O 0.43487 0.74748 0.58965 0.0
O46 O 0.32582 0.64075 0.54537 0.0
O47 O 0.54273 0.70154 0.51696 0.0
O48 O 0.58451 0.59322 0.40056 0.0
O49 O 0.54013 0.6759 0.3137 0.0
O50 O 0.41677 0.72523 0.41159 0.0
O51 O 0.34719 0.64449 0.29588 0.0
C52 C 0.64299 0.33172 0.37496 0.0
C53 C 0.42416 0.37051 0.38837 0.0
C54 C 0.40623 0.39027 0.62362 0.0
C55 C 0.64362 0.33568 0.61505 0.0
C56 C 0.35823 0.7077 0.58956 0.0
C57 C 0.57723 0.66914 0.5756 0.0
C58 C 0.5949 0.64921 0.34084 0.0
C59 C 0.35743 0.70365 0.34936 0.0
O60 O 0.56635 0.29196 0.37479 0.0
O61 O 0.67539 0.39861 0.41927 0.0
O62 O 0.44716 0.44649 0.38001 0.0
O63 O 0.45839 0.33793 0.44713 0.0
C64 C 0.26321 0.23216 0.20221 0.0
C65 C 0.20682 0.19588 0.1523 0.0
C66 C 0.32111 0.27923 0.26631 0.0
C67 C 0.36817 0.32112 0.32196 0.0
C68 C 0.74345 0.21724 0.222 0.0
C69 C 0.76944 0.18389 0.17009 0.0
C70 C 0.71753 0.26238 0.28005 0.0
C71 C 0.69008 0.29948 0.32547 0.0
C72 C 0.80378 0.77995 0.2311 0.0
C73 C 0.8479 0.83065 0.18325 0.0
C74 C 0.73704 0.72689 0.27583 0.0
C75 C 0.67403 0.68862 0.3083 0.0
C76 C 0.19827 0.80352 0.2568 0.0
C77 C 0.15911 0.82513 0.19873 0.0
C78 C 0.25478 0.77649 0.30646 0.0
C79 C 0.305 0.74867 0.33319 0.0
C80 C 0.2575 0.82235 0.74197 0.0
C81 C 0.23149 0.85572 0.79383 0.0
C82 C 0.28355 0.77716 0.68412 0.0
C83 C 0.31111 0.74004 0.63889 0.0
C84 C 0.19718 0.2598 0.73313 0.0
C85 C 0.15307 0.20911 0.78099 0.0
C86 C 0.26399 0.31279 0.68847 0.0
C87 C 0.32707 0.35095 0.65609 0.0
C88 C 0.80313 0.23611 0.7071 0.0
C89 C 0.84229 0.21455 0.76521 0.0
C90 C 0.74652 0.26305 0.65753 0.0
C91 C 0.69617 0.29077 0.63096 0.0
C92 C 0.73901 0.80817 0.76056 0.0
C93 C 0.79499 0.84448 0.81095 0.0
C94 C 0.68119 0.7609 0.69654 0.0
C95 C 0.63371 0.71881 0.64139 0.0
loop_
_geom_bond_atom_site_label_1
_geom_bond_atom_site_label_2
_geom_bond_distance
_geom_bond_site_symmetry_2
_ccdc_geom_bond_type
C0 O12 1.241 . S
C0 O13 1.280 . S
C1 O14 1.277 . S
C1 O15 1.245 . S
C2 O26 1.247 . S
C2 O28 1.289 . S
Mg3 O4 1.926 . S
Mg3 O13 1.984 . S
Mg3 O15 1.988 1_554 S
Mg3 O16 2.061 1_655 S
O4 Mg3 1.926 . S
O4 Mg5 1.986 1_544 S
O4 Mg6 1.918 1_655 S
Mg5 O4 1.986 1_566 S
Mg5 O12 2.042 1_566 S
Mg5 O14 2.041 1_565 S
Mg5 O20 2.038 1_556 S
Mg5 O28 2.238 . S
Mg6 O4 1.918 1_455 S
Mg6 O7 1.916 1_544 S
Mg6 O17 2.107 . S
Mg6 O19 2.078 1_445 S
Mg6 O28 2.106 1_444 S
Mg6 O29 2.079 1_554 S
O7 Mg6 1.916 1_566 S
O7 Mg8 1.926 . S
O7 Mg9 1.986 1_566 S
Mg8 O7 1.926 . S
Mg8 O22 1.984 . S
Mg8 O25 1.988 1_556 S
Mg8 O26 2.061 1_455 S
Mg9 O7 1.986 1_544 S
Mg9 O17 2.238 . S
Mg9 O21 2.042 1_544 S
Mg9 O23 2.041 1_545 S
Mg9 O30 2.038 1_554 S
C10 O16 1.247 . S
C10 O17 1.289 . S
C11 O29 1.245 . S
C11 O30 1.274 . S
O12 C0 1.241 . S
O12 Mg5 2.042 1_544 S
O13 C0 1.280 . S
O13 Mg3 1.984 . S
O14 C1 1.277 . S
O14 Mg5 2.041 1_545 S
O15 C1 1.245 . S
O15 Mg3 1.988 1_556 S
O16 Mg3 2.061 1_455 S
O16 C10 1.247 . S
O17 Mg6 2.107 . S
O17 Mg9 2.238 . S
O17 C10 1.289 . S
C18 O19 1.245 . S
C18 O20 1.274 . S
O19 Mg6 2.078 1_665 S
O19 C18 1.245 . S
O20 Mg5 2.038 1_554 S
O20 C18 1.274 . S
O21 Mg9 2.042 1_566 S
O21 C24 1.241 . S
O22 Mg8 1.984 . S
O22 C24 1.280 . S
O23 Mg9 2.041 1_565 S
O23 C27 1.277 . S
C24 O21 1.241 . S
C24 O22 1.280 . S
O25 Mg8 1.988 1_554 S
O25 C27 1.245 . S
O26 C2 1.247 . S
O26 Mg8 2.061 1_655 S
C27 O23 1.277 . S
C27 O25 1.245 . S
O28 C2 1.289 . S
O28 Mg5 2.238 . S
O28 Mg6 2.106 1_666 S
O29 Mg6 2.079 1_556 S
O29 C11 1.245 . S
O30 Mg9 2.038 1_556 S
O30 C11 1.274 . S
Co31 O34 2.042 . S
Co31 O41 2.264 . S
Co31 O60 2.286 . S
Co31 O61 2.069 . S
Co31 O63 2.015 . S
Co32 O34 2.122 . S
Co32 O40 2.073 . S
Co32 O41 2.327 . S
Co32 O42 1.976 . S
Co33 O34 2.087 . S
Co33 O36 2.087 . S
Co33 O43 2.111 . S
Co33 O44 2.143 . S
Co33 O48 2.111 . S
Co33 O62 2.143 . S
O34 Co31 2.042 . S
O34 Co32 2.122 . S
O34 Co33 2.087 . S
O34 H35 0.980 . S
H35 O34 0.980 . S
O36 Co33 2.087 . S
O36 Co37 2.042 . S
O36 Co38 2.122 . S
O36 H39 0.980 . S
Co37 O36 2.042 . S
Co37 O45 2.286 . S
Co37 O46 2.069 . S
Co37 O47 2.015 . S
Co37 O50 2.264 . S
Co38 O36 2.122 . S
Co38 O49 1.976 . S
Co38 O50 2.327 . S
Co38 O51 2.073 . S
H39 O36 0.980 . S
O40 Co32 2.073 . S
O40 C55 1.245 . S
O41 Co31 2.264 . S
O41 Co32 2.327 . S
O41 C55 1.257 . S
O42 Co32 1.976 . S
O42 C54 1.251 . S
O43 Co33 2.111 . S
O43 C54 1.274 . S
O44 Co33 2.143 . S
O44 C57 1.246 . S
O45 Co37 2.286 . S
O45 C56 1.259 . S
O46 Co37 2.069 . S
O46 C56 1.289 . S
O47 Co37 2.015 . S
O47 C57 1.257 . S
O48 Co33 2.111 . S
O48 C58 1.274 . S
O49 Co38 1.976 . S
O49 C58 1.251 . S
O50 Co37 2.264 . S
O50 Co38 2.327 . S
O50 C59 1.257 . S
O51 Co38 2.073 . S
O51 C59 1.245 . S
C52 O60 1.259 . S
C52 O61 1.289 . S
C53 O62 1.246 . S
C53 O63 1.257 . S
C54 O42 1.251 . S
C54 O43 1.274 . S
C55 O40 1.245 . S
C55 O41 1.257 . S
C56 O45 1.259 . S
C56 O46 1.289 . S
C57 O44 1.246 . S
C57 O47 1.257 . S
C58 O48 1.274 . S
C58 O49 1.251 . S
C59 O50 1.257 . S
C59 O51 1.245 . S
O60 Co31 2.286 . S
O60 C52 1.259 . S
O61 Co31 2.069 . S
O61 C52 1.289 . S
O62 Co33 2.143 . S
O62 C53 1.246 . S
O63 Co31 2.015 . S
O63 C53 1.257 . S
C64 C65 1.170 . S
C64 C66 1.380 . S
C65 C64 1.170 . S
C66 C64 1.380 . S
C66 C67 1.170 . S
C67 C66 1.170 . S
C68 C69 1.170 . S
C68 C70 1.380 . S
C69 C68 1.170 . S
C70 C68 1.380 . S
C70 C71 1.170 . S
C71 C70 1.170 . S
C72 C73 1.170 . S
C72 C74 1.380 . S
C73 C72 1.170 . S
C74 C72 1.380 . S
C74 C75 1.170 . S
C75 C74 1.170 . S
C76 C77 1.170 . S
C76 C78 1.380 . S
C77 C76 1.170 . S
C78 C76 1.380 . S
C78 C79 1.170 . S
C79 C78 1.170 . S
C80 C81 1.170 . S
C80 C82 1.380 . S
C81 C80 1.170 . S
C82 C80 1.380 . S
C82 C83 1.170 . S
C83 C82 1.170 . S
C84 C85 1.170 . S
C84 C86 1.380 . S
C85 C84 1.170 . S
C86 C84 1.380 . S
C86 C87 1.170 . S
C87 C86 1.170 . S
C88 C89 1.170 . S
C88 C90 1.380 . S
C89 C88 1.170 . S
C90 C88 1.380 . S
C90 C91 1.170 . S
C91 C90 1.170 . S
C92 C93 1.170 . S
C92 C94 1.380 . S
C93 C92 1.170 . S
C94 C92 1.380 . S
C94 C95 1.170 . S
C95 C94 1.170 . S
C65 C10 1.237 . S
C67 C53 1.244 . S
C69 C0 1.569 . S
C71 C52 1.616 . S
C73 C18 1.559 . S
C75 C58 1.528 . S
C77 C27 1.548 . S
C79 C59 1.516 . S
C81 C24 1.581 . S
C83 C56 1.611 . S
C87 C54 1.526 . S
C85 C11 1.559 . S
C89 C1 1.581 . S
C91 C55 1.546 . S
C95 C57 1.292 . S
C93 C2 1.239 . S
