# Generated by pormake.
# Topology wbl, (4,4)-cn, num edge types: 1
# Building blocks:
#     Node 0, Type 0, BuildingBlock: MUDLON_clean_sbu_0, # of connection points: 4
#     Node 1, Type 0, BuildingBlock: MUDLON_clean_sbu_0, # of connection points: 4
#     Node 2, Type 0, BuildingBlock: MUDLON_clean_sbu_0, # of connection points: 4
#     Node 3, Type 0, BuildingBlock: MUDLON_clean_sbu_0, # of connection points: 4
#     Node 4, Type 0, BuildingBlock: MUDLON_clean_sbu_0, # of connection points: 4
#     Node 5, Type 0, BuildingBlock: MUDLON_clean_sbu_0, # of connection points: 4
#     Node 6, Type 0, BuildingBlock: MUDLON_clean_sbu_0, # of connection points: 4
#     Node 7, Type 0, BuildingBlock: MUDLON_clean_sbu_0, # of connection points: 4
#     Node 8, Type 1, BuildingBlock: CEKHIL_clean_sbu_0, # of connection points: 4
#     Node 9, Type 1, BuildingBlock: CEKHIL_clean_sbu_0, # of connection points: 4
#     Node 10, Type 1, BuildingBlock: CEKHIL_clean_sbu_0, # of connection points: 4
#     Node 11, Type 1, BuildingBlock: CEKHIL_clean_sbu_0, # of connection points: 4
#     Node 12, Type 1, BuildingBlock: CEKHIL_clean_sbu_0, # of connection points: 4
#     Node 13, Type 1, BuildingBlock: CEKHIL_clean_sbu_0, # of connection points: 4
#     Node 14, Type 1, BuildingBlock: CEKHIL_clean_sbu_0, # of connection points: 4
#     Node 15, Type 1, BuildingBlock: CEKHIL_clean_sbu_0, # of connection points: 4
#     Edge 16, Type (0, 1), None
#     Edge 17, Type (0, 1), None
#     Edge 18, Type (0, 1), None
#     Edge 19, Type (0, 1), None
#     Edge 20, Type (0, 1), None
#     Edge 21, Type (0, 1), None
#     Edge 22, Type (0, 1), None
#     Edge 23, Type (0, 1), None
#     Edge 24, Type (0, 1), None
#     Edge 25, Type (0, 1), None
#     Edge 26, Type (0, 1), None
#     Edge 27, Type (0, 1), None
#     Edge 28, Type (0, 1), None
#     Edge 29, Type (0, 1), None
#     Edge 30, Type (0, 1), None
#     Edge 31, Type (0, 1), None
#     Edge 32, Type (0, 1), None
#     Edge 33, Type (0, 1), None
#     Edge 34, Type (0, 1), None
#     Edge 35, Type (0, 1), None
#     Edge 36, Type (0, 1), None
#     Edge 37, Type (0, 1), None
#     Edge 38, Type (0, 1), None
#     Edge 39, Type (0, 1), None
#     Edge 40, Type (0, 1), None
#     Edge 41, Type (0, 1), None
#     Edge 42, Type (0, 1), None
#     Edge 43, Type (0, 1), None
#     Edge 44, Type (0, 1), None
#     Edge 45, Type (0, 1), None
#     Edge 46, Type (0, 1), None
#     Edge 47, Type (0, 1), None
# Relax obj value: 0.229
# Max RMSD: 0.223
# Mean RMSD: 0.178
data_MOF--net-wbl--node1-MUDLON_clean_sbu_0--node2-CEKHIL_clean_sbu_0--edge1-none
_symmetry_space_group_name_H-M    P1
_symmetry_Int_Tables_number       1
_symmetry_cell_setting            triclinic
loop_
_symmetry_equiv_pos_as_xyz
'x, y, z'
_cell_length_a     15.874183
_cell_length_b     15.939623
_cell_length_c     34.389902
_cell_angle_alpha  90.411788
_cell_angle_beta   90.118942
_cell_angle_gamma 89.858293
loop_
_atom_site_label
_atom_site_type_symbol
_atom_site_fract_x
_atom_site_fract_y
_atom_site_fract_z
_atom_type_partial_charge
Mg0 Mg 0.03958 0.08435 0.35278 0.0
C1 C 0.12805 0.9738 0.40325 0.0
O2 O 0.18012 0.03497 0.39504 0.0
C3 C 0.90065 0.17556 0.31146 0.0
O4 O 0.95445 0.23791 0.31325 0.0
C5 C 0.14979 0.01517 0.29204 0.0
O6 O 0.10364 0.94982 0.30087 0.0
O7 O 0.13732 0.08479 0.3095 0.0
O8 O 0.05811 0.96997 0.38528 0.0
O9 O 0.04023 0.17205 0.40118 0.0
C10 C 0.99688 0.14226 0.42901 0.0
O11 O 0.95667 0.07118 0.42406 0.0
O12 O 0.92051 0.10391 0.32496 0.0
Mg13 Mg 0.11152 0.57769 0.60747 0.0
C14 C 0.2974 0.56853 0.64129 0.0
O15 O 0.37735 0.55029 0.63636 0.0
C16 C 0.06933 0.40732 0.57139 0.0
O17 O 0.1462 0.38978 0.58299 0.0
C18 C 0.16197 0.69674 0.5474 0.0
O19 O 0.21967 0.63794 0.54469 0.0
O20 O 0.1037 0.6901 0.57256 0.0
O21 O 0.24657 0.55473 0.61318 0.0
O22 O 0.0611 0.58246 0.66538 0.0
C23 C 0.08184 0.5182 0.68483 0.0
O24 O 0.12603 0.4584 0.6681 0.0
O25 O 0.03987 0.48043 0.57702 0.0
Mg26 Mg 0.63515 0.57843 0.84329 0.0
C27 C 0.57777 0.72607 0.8882 0.0
O28 O 0.50498 0.70392 0.87322 0.0
C29 C 0.81716 0.5456 0.82266 0.0
O30 O 0.82841 0.61268 0.84438 0.0
C31 C 0.48768 0.63156 0.79225 0.0
O32 O 0.53188 0.70039 0.78792 0.0
O33 O 0.51745 0.57089 0.81188 0.0
O34 O 0.6449 0.70065 0.87159 0.0
O35 O 0.63328 0.50126 0.89439 0.0
C36 C 0.68763 0.52645 0.91897 0.0
O37 O 0.73543 0.59079 0.91089 0.0
O38 O 0.74298 0.5228 0.81382 0.0
Mg39 Mg 0.55015 0.12764 0.09329 0.0
C40 C 0.65761 0.18692 0.15574 0.0
O41 O 0.63333 0.2562 0.13861 0.0
C42 C 0.59635 0.96963 0.0507 0.0
O43 O 0.66961 0.99318 0.06482 0.0
C44 C 0.66527 0.24615 0.05398 0.0
O45 O 0.71584 0.18382 0.06285 0.0
O46 O 0.58689 0.24004 0.06143 0.0
O47 O 0.64281 0.11678 0.13914 0.0
O48 O 0.44789 0.13389 0.13492 0.0
C49 C 0.41359 0.06406 0.14282 0.0
O50 O 0.42663 0.9992 0.11991 0.0
O51 O 0.5327 0.01594 0.05671 0.0
Mg52 Mg 0.15398 0.54691 0.90992 0.0
C53 C 0.18508 0.66535 0.84292 0.0
O54 O 0.20069 0.71669 0.87201 0.0
C55 C 0.99533 0.51538 0.95634 0.0
O56 O 0.03283 0.44279 0.96139 0.0
C57 C 0.26309 0.67229 0.95901 0.0
O58 O 0.19907 0.72389 0.95524 0.0
O59 O 0.25929 0.59868 0.9443 0.0
O60 O 0.16174 0.59085 0.8499 0.0
O61 O 0.1624 0.41105 0.90884 0.0
C62 C 0.14429 0.36439 0.87989 0.0
O63 O 0.14687 0.2826 0.88387 0.0
O64 O 0.03176 0.57229 0.93665 0.0
Mg65 Mg 0.64371 0.66223 0.16724 0.0
C66 C 0.56771 0.68802 0.09331 0.0
O67 O 0.63153 0.73971 0.09619 0.0
C68 C 0.61311 0.51161 0.21929 0.0
O69 O 0.5358 0.51753 0.20592 0.0
C70 C 0.53148 0.79629 0.20126 0.0
O71 O 0.4766 0.73509 0.19816 0.0
O72 O 0.60823 0.78316 0.192 0.0
O73 O 0.5496 0.64153 0.12209 0.0
O74 O 0.75388 0.65603 0.1303 0.0
C75 C 0.7697 0.58197 0.11819 0.0
O76 O 0.74493 0.51829 0.13926 0.0
O77 O 0.66739 0.56541 0.20958 0.0
Mg78 Mg 0.54327 0.13772 0.41762 0.0
C79 C 0.62093 0.23396 0.36128 0.0
O80 O 0.66746 0.16715 0.36729 0.0
C81 C 0.40387 0.056 0.46052 0.0
O82 O 0.45713 0.99314 0.45738 0.0
C83 C 0.69813 0.18412 0.46701 0.0
O84 O 0.67222 0.26161 0.46208 0.0
O85 O 0.65549 0.12313 0.45311 0.0
O86 O 0.55863 0.24845 0.38347 0.0
O87 O 0.53938 0.05243 0.36796 0.0
C88 C 0.46901 0.04178 0.35096 0.0
O89 O 0.3995 0.06464 0.36877 0.0
O90 O 0.42482 0.12786 0.44807 0.0
Mg91 Mg 0.03486 0.05448 0.67803 0.0
C92 C 0.1268 0.01181 0.6073 0.0
O93 O 0.10564 0.93865 0.6215 0.0
C94 C 0.08393 0.21805 0.70957 0.0
O95 O 0.14043 0.20153 0.68273 0.0
C96 C 0.16331 0.92591 0.70351 0.0
O97 O 0.21436 0.9847 0.69123 0.0
O98 O 0.08404 0.93895 0.70348 0.0
O99 O 0.11029 0.07787 0.6267 0.0
O100 O 0.91893 0.04238 0.64625 0.0
C101 C 0.89927 0.11261 0.63144 0.0
O102 O 0.91501 0.18098 0.6517 0.0
O103 O 0.02811 0.16362 0.71663 0.0
Co104 Co 0.467 0.74492 0.00239 0.0
O105 O 0.40244 0.64907 0.9849 0.0
O106 O 0.35522 0.77983 0.98593 0.0
C107 C 0.51882 0.6882 0.05735 0.0
O108 O 0.51616 0.85886 0.02025 0.0
Co109 Co 0.66236 0.73094 0.00643 0.0
O110 O 0.65564 0.8425 0.03121 0.0
C111 C 0.58003 0.74172 0.93038 0.0
C112 C 0.34163 0.70115 0.9777 0.0
C113 C 0.58853 0.88621 0.03234 0.0
O114 O 0.51003 0.75915 0.94747 0.0
O115 O 0.64753 0.72311 0.94873 0.0
O116 O 0.44295 0.71881 0.05681 0.0
O117 O 0.55603 0.68419 0.02397 0.0
Co118 Co 0.35037 0.99181 0.23952 0.0
O119 O 0.26445 0.06969 0.25519 0.0
O120 O 0.2564 0.93099 0.26059 0.0
C121 C 0.37705 0.0494 0.1812 0.0
O122 O 0.42762 0.89235 0.22537 0.0
Co123 Co 0.5308 0.05292 0.22998 0.0
O124 O 0.55629 0.94015 0.2094 0.0
C125 C 0.4664 0.0288 0.3087 0.0
C126 C 0.22352 0.00466 0.26723 0.0
C127 C 0.50358 0.88085 0.21287 0.0
O128 O 0.39856 0.99967 0.29373 0.0
O129 O 0.52657 0.0576 0.28831 0.0
O130 O 0.31524 0.99713 0.18536 0.0
O131 O 0.41538 0.07172 0.21293 0.0
Co132 Co 0.19277 0.90002 0.49869 0.0
O133 O 0.10933 0.81948 0.51463 0.0
O134 O 0.24821 0.80294 0.51919 0.0
C135 C 0.13768 0.93272 0.44068 0.0
O136 O 0.29776 0.96682 0.48502 0.0
Co137 Co 0.14667 0.08732 0.48855 0.0
O138 O 0.26388 0.09998 0.47001 0.0
C139 C 0.15112 0.01553 0.56646 0.0
C140 C 0.17308 0.77428 0.52577 0.0
C141 C 0.31727 0.04072 0.47324 0.0
O142 O 0.18744 0.95029 0.55226 0.0
O143 O 0.12382 0.07604 0.54573 0.0
O144 O 0.18349 0.86557 0.44431 0.0
O145 O 0.11984 0.97251 0.47258 0.0
Co146 Co 0.24956 0.7273 0.74362 0.0
O147 O 0.14882 0.78431 0.72648 0.0
O148 O 0.27852 0.8341 0.72109 0.0
C149 C 0.20022 0.69336 0.80299 0.0
O150 O 0.36772 0.68966 0.76029 0.0
Co151 Co 0.2495 0.53946 0.76242 0.0
O152 O 0.35962 0.56097 0.78652 0.0
C153 C 0.26905 0.59036 0.68079 0.0
C154 C 0.19789 0.84566 0.71691 0.0
C155 C 0.40041 0.62709 0.77856 0.0
O156 O 0.26344 0.66819 0.69111 0.0
O157 O 0.26539 0.52984 0.70485 0.0
O158 O 0.22973 0.76755 0.79637 0.0
O159 O 0.1931 0.64464 0.77289 0.0
Co160 Co 0.94335 0.23948 0.52239 0.0
O161 O 0.05133 0.27001 0.54374 0.0
O162 O 0.93945 0.35331 0.54294 0.0
C163 C 0.99109 0.18396 0.46667 0.0
O164 O 0.82312 0.22679 0.50097 0.0
Co165 Co 0.90681 0.0483 0.51029 0.0
O166 O 0.80542 0.09085 0.48346 0.0
C167 C 0.90093 0.11959 0.5889 0.0
C168 C 0.01838 0.34223 0.55211 0.0
C169 C 0.77998 0.16664 0.48524 0.0
O170 O 0.90823 0.19356 0.5745 0.0
O171 O 0.9061 0.05225 0.56857 0.0
O172 O 0.98297 0.26472 0.46987 0.0
O173 O 0.98014 0.14172 0.49818 0.0
Co174 Co 0.00157 0.44074 0.77708 0.0
O175 O 0.96029 0.54106 0.80179 0.0
O176 O 0.88823 0.42256 0.79618 0.0
C177 C 0.04683 0.50404 0.72313 0.0
O178 O 0.02736 0.32639 0.75126 0.0
Co179 Co 0.19433 0.42853 0.76287 0.0
O180 O 0.16122 0.33382 0.72925 0.0
C181 C 0.12969 0.3993 0.84121 0.0
C182 C 0.89042 0.50121 0.80681 0.0
C183 C 0.09047 0.29693 0.73158 0.0
O184 O 0.05379 0.40182 0.82786 0.0
O185 O 0.19481 0.41457 0.82069 0.0
O186 O 0.96822 0.48449 0.72664 0.0
O187 O 0.09311 0.49311 0.7537 0.0
Co188 Co 0.75633 0.43964 0.01106 0.0
O189 O 0.65475 0.38895 0.03119 0.0
O190 O 0.78082 0.32877 0.03005 0.0
C191 C 0.69819 0.48649 0.95626 0.0
O192 O 0.87394 0.46907 0.99057 0.0
Co193 Co 0.77269 0.63117 0.99577 0.0
O194 O 0.8772 0.60124 0.9678 0.0
C195 C 0.77877 0.56815 0.07618 0.0
C196 C 0.70099 0.32338 0.03797 0.0
C197 C 0.91077 0.5295 0.97248 0.0
O198 O 0.78099 0.49183 0.06354 0.0
O199 O 0.77018 0.63182 0.05405 0.0
O200 O 0.72165 0.40863 0.95859 0.0
O201 O 0.70472 0.53122 0.98757 0.0
Co202 Co 0.67994 0.31407 0.26677 0.0
O203 O 0.58531 0.38105 0.2507 0.0
O204 O 0.71922 0.4197 0.24651 0.0
C205 C 0.62765 0.2751 0.32397 0.0
O206 O 0.79255 0.25955 0.2823 0.0
Co207 Co 0.65463 0.12273 0.27568 0.0
O208 O 0.76629 0.1257 0.29967 0.0
C209 C 0.67182 0.1908 0.19771 0.0
C210 C 0.63995 0.4367 0.24037 0.0
C211 C 0.81528 0.18815 0.29667 0.0
O212 O 0.68534 0.26345 0.21289 0.0
O213 O 0.65548 0.12573 0.21763 0.0
O214 O 0.66342 0.34782 0.32085 0.0
O215 O 0.61636 0.23347 0.29195 0.0
loop_
_geom_bond_atom_site_label_1
_geom_bond_atom_site_label_2
_geom_bond_distance
_geom_bond_site_symmetry_2
_ccdc_geom_bond_type
Mg0 O7 2.141 . S
Mg0 O8 2.048 1_545 S
Mg0 O9 2.048 1_455 S
Mg0 O12 2.141 1_455 S
C1 O2 1.313 . S
C1 O8 1.195 . S
O2 C1 1.313 . S
C3 O4 1.245 . S
C3 O12 1.289 . S
O4 C3 1.245 . S
C5 O6 1.245 . S
C5 O7 1.289 1_565 S
O6 C5 1.245 . S
O7 Mg0 2.141 . S
O7 C5 1.289 1_545 S
O8 Mg0 2.048 1_565 S
O8 C1 1.195 . S
O9 Mg0 2.048 1_655 S
O9 C10 1.195 . S
C10 O9 1.195 . S
C10 O11 1.313 1_545 S
O11 C10 1.313 1_565 S
O12 Mg0 2.141 1_655 S
O12 C3 1.289 . S
Mg13 O20 2.141 . S
Mg13 O21 2.048 . S
Mg13 O22 2.048 . S
Mg13 O25 2.141 . S
C14 O15 1.313 . S
C14 O21 1.195 . S
O15 C14 1.313 . S
C16 O17 1.245 . S
C16 O25 1.289 . S
O17 C16 1.245 . S
C18 O19 1.245 . S
C18 O20 1.289 . S
O19 C18 1.245 . S
O20 Mg13 2.141 . S
O20 C18 1.289 . S
O21 Mg13 2.048 . S
O21 C14 1.195 . S
O22 Mg13 2.048 . S
O22 C23 1.195 . S
C23 O22 1.195 . S
C23 O24 1.313 . S
O24 C23 1.313 . S
O25 Mg13 2.141 . S
O25 C16 1.289 . S
Mg26 O33 2.141 . S
Mg26 O34 2.048 . S
Mg26 O35 2.048 . S
Mg26 O38 2.141 . S
C27 O28 1.313 . S
C27 O34 1.195 . S
O28 C27 1.313 . S
C29 O30 1.245 . S
C29 O38 1.289 . S
O30 C29 1.245 . S
C31 O32 1.245 . S
C31 O33 1.289 . S
O32 C31 1.245 . S
O33 Mg26 2.141 . S
O33 C31 1.289 . S
O34 Mg26 2.048 . S
O34 C27 1.195 . S
O35 Mg26 2.048 . S
O35 C36 1.195 . S
C36 O35 1.195 . S
C36 O37 1.313 . S
O37 C36 1.313 . S
O38 Mg26 2.141 . S
O38 C29 1.289 . S
Mg39 O46 2.141 . S
Mg39 O47 2.048 . S
Mg39 O48 2.048 . S
Mg39 O51 2.141 . S
C40 O41 1.313 . S
C40 O47 1.195 . S
O41 C40 1.313 . S
C42 O43 1.245 . S
C42 O51 1.289 . S
O43 C42 1.245 . S
C44 O45 1.245 . S
C44 O46 1.289 . S
O45 C44 1.245 . S
O46 Mg39 2.141 . S
O46 C44 1.289 . S
O47 Mg39 2.048 . S
O47 C40 1.195 . S
O48 Mg39 2.048 . S
O48 C49 1.195 . S
C49 O48 1.195 . S
C49 O50 1.313 . S
O50 C49 1.313 . S
O51 Mg39 2.141 . S
O51 C42 1.289 . S
Mg52 O59 2.141 . S
Mg52 O60 2.048 . S
Mg52 O61 2.048 . S
Mg52 O64 2.141 . S
C53 O54 1.313 . S
C53 O60 1.195 . S
O54 C53 1.313 . S
C55 O56 1.245 . S
C55 O64 1.289 . S
O56 C55 1.245 . S
C57 O58 1.245 . S
C57 O59 1.289 . S
O58 C57 1.245 . S
O59 Mg52 2.141 . S
O59 C57 1.289 . S
O60 Mg52 2.048 . S
O60 C53 1.195 . S
O61 Mg52 2.048 . S
O61 C62 1.195 . S
C62 O61 1.195 . S
C62 O63 1.313 . S
O63 C62 1.313 . S
O64 Mg52 2.141 . S
O64 C55 1.289 . S
Mg65 O72 2.141 . S
Mg65 O73 2.048 . S
Mg65 O74 2.048 . S
Mg65 O77 2.141 . S
C66 O67 1.313 . S
C66 O73 1.195 . S
O67 C66 1.313 . S
C68 O69 1.245 . S
C68 O77 1.289 . S
O69 C68 1.245 . S
C70 O71 1.245 . S
C70 O72 1.289 . S
O71 C70 1.245 . S
O72 Mg65 2.141 . S
O72 C70 1.289 . S
O73 Mg65 2.048 . S
O73 C66 1.195 . S
O74 Mg65 2.048 . S
O74 C75 1.195 . S
C75 O74 1.195 . S
C75 O76 1.313 . S
O76 C75 1.313 . S
O77 Mg65 2.141 . S
O77 C68 1.289 . S
Mg78 O85 2.141 . S
Mg78 O86 2.048 . S
Mg78 O87 2.048 . S
Mg78 O90 2.141 . S
C79 O80 1.313 . S
C79 O86 1.195 . S
O80 C79 1.313 . S
C81 O82 1.245 . S
C81 O90 1.289 . S
O82 C81 1.245 . S
C83 O84 1.245 . S
C83 O85 1.289 . S
O84 C83 1.245 . S
O85 Mg78 2.141 . S
O85 C83 1.289 . S
O86 Mg78 2.048 . S
O86 C79 1.195 . S
O87 Mg78 2.048 . S
O87 C88 1.195 . S
C88 O87 1.195 . S
C88 O89 1.313 . S
O89 C88 1.313 . S
O90 Mg78 2.141 . S
O90 C81 1.289 . S
Mg91 O98 2.141 1_655 S
Mg91 O99 2.048 1_655 S
Mg91 O100 2.048 1_565 S
Mg91 O103 2.141 1_565 S
C92 O93 1.313 . S
C92 O99 1.195 . S
O93 C92 1.313 . S
C94 O95 1.245 1_655 S
C94 O103 1.289 . S
O95 C94 1.245 1_455 S
C96 O97 1.245 . S
C96 O98 1.289 . S
O97 C96 1.245 . S
O98 Mg91 2.141 1_455 S
O98 C96 1.289 . S
O99 Mg91 2.048 1_455 S
O99 C92 1.195 . S
O100 Mg91 2.048 1_545 S
O100 C101 1.195 . S
C101 O100 1.195 . S
C101 O102 1.313 1_655 S
O102 C101 1.313 1_455 S
O103 Mg91 2.141 1_545 S
O103 C94 1.289 . S
Co104 O105 2.216 1_554 S
Co104 O106 2.091 1_554 S
Co104 O108 2.004 . S
Co104 O114 2.021 1_554 S
Co104 O116 2.137 . S
Co104 O117 2.244 . S
O105 Co104 2.216 1_556 S
O105 C112 1.247 . S
O106 Co104 2.091 1_556 S
O106 C112 1.261 . S
C107 O116 1.247 . S
C107 O117 1.272 . S
O108 Co104 2.004 . S
O108 C113 1.259 . S
Co109 O110 2.061 . S
Co109 O115 2.052 1_554 S
Co109 O117 2.135 . S
O110 Co109 2.061 . S
O110 C113 1.235 . S
C111 O114 1.238 . S
C111 O115 1.241 . S
C112 O105 1.247 . S
C112 O106 1.261 . S
C113 O108 1.259 . S
C113 O110 1.235 . S
O114 Co104 2.021 1_556 S
O114 C111 1.238 . S
O115 Co109 2.052 1_556 S
O115 C111 1.241 . S
O116 Co104 2.137 . S
O116 C107 1.247 . S
O117 Co104 2.244 . S
O117 C107 1.272 . S
O117 Co109 2.135 . S
Co118 O119 2.216 1_565 S
Co118 O120 2.091 . S
Co118 O122 2.004 . S
Co118 O128 2.021 . S
Co118 O130 2.137 . S
Co118 O131 2.244 1_565 S
O119 Co118 2.216 1_545 S
O119 C126 1.247 1_545 S
O120 Co118 2.091 . S
O120 C126 1.261 . S
C121 O130 1.247 1_545 S
C121 O131 1.272 . S
O122 Co118 2.004 . S
O122 C127 1.259 . S
Co123 O124 2.061 1_545 S
Co123 O129 2.052 . S
Co123 O131 2.135 . S
O124 Co123 2.061 1_565 S
O124 C127 1.235 . S
C125 O128 1.238 1_545 S
C125 O129 1.241 . S
C126 O119 1.247 1_565 S
C126 O120 1.261 . S
C127 O122 1.259 . S
C127 O124 1.235 . S
O128 Co118 2.021 . S
O128 C125 1.238 1_565 S
O129 Co123 2.052 . S
O129 C125 1.241 . S
O130 Co118 2.137 . S
O130 C121 1.247 1_565 S
O131 Co118 2.244 1_545 S
O131 C121 1.272 . S
O131 Co123 2.135 . S
Co132 O133 2.216 . S
Co132 O134 2.091 . S
Co132 O136 2.004 . S
Co132 O142 2.021 . S
Co132 O144 2.137 . S
Co132 O145 2.244 . S
O133 Co132 2.216 . S
O133 C140 1.247 . S
O134 Co132 2.091 . S
O134 C140 1.261 . S
C135 O144 1.247 . S
C135 O145 1.272 . S
O136 Co132 2.004 . S
O136 C141 1.259 . S
Co137 O138 2.061 . S
Co137 O143 2.055 . S
Co137 O145 2.135 1_545 S
O138 Co137 2.061 . S
O138 C141 1.235 1_545 S
C139 O142 1.238 . S
C139 O143 1.236 1_565 S
C140 O133 1.247 . S
C140 O134 1.261 . S
C141 O136 1.259 . S
C141 O138 1.235 1_565 S
O142 Co132 2.021 . S
O142 C139 1.238 . S
O143 Co137 2.055 . S
O143 C139 1.236 1_545 S
O144 Co132 2.137 . S
O144 C135 1.247 . S
O145 Co132 2.244 . S
O145 C135 1.272 . S
O145 Co137 2.135 1_565 S
Co146 O147 2.216 . S
Co146 O148 2.091 . S
Co146 O150 2.004 . S
Co146 O156 2.021 . S
Co146 O158 2.137 . S
Co146 O159 2.244 . S
O147 Co146 2.216 . S
O147 C154 1.247 . S
O148 Co146 2.091 . S
O148 C154 1.261 . S
C149 O158 1.247 . S
C149 O159 1.272 . S
O150 Co146 2.004 . S
O150 C155 1.259 . S
Co151 O152 2.061 . S
Co151 O157 2.052 . S
Co151 O159 2.135 . S
O152 Co151 2.061 . S
O152 C155 1.235 . S
C153 O156 1.238 . S
C153 O157 1.241 . S
C154 O147 1.247 . S
C154 O148 1.261 . S
C155 O150 1.259 . S
C155 O152 1.235 . S
O156 Co146 2.021 . S
O156 C153 1.238 . S
O157 Co151 2.052 . S
O157 C153 1.241 . S
O158 Co146 2.137 . S
O158 C149 1.247 . S
O159 Co146 2.244 . S
O159 C149 1.272 . S
O159 Co151 2.135 . S
Co160 O161 2.216 1_655 S
Co160 O162 2.091 . S
Co160 O164 2.004 . S
Co160 O170 2.021 . S
Co160 O172 2.137 . S
Co160 O173 2.244 . S
O161 Co160 2.216 1_455 S
O161 C168 1.247 1_455 S
O162 Co160 2.091 . S
O162 C168 1.261 . S
C163 O172 1.247 . S
C163 O173 1.272 . S
O164 Co160 2.004 . S
O164 C169 1.259 . S
Co165 O166 2.061 . S
Co165 O171 2.052 . S
Co165 O173 2.135 . S
O166 Co165 2.061 . S
O166 C169 1.235 . S
C167 O170 1.238 . S
C167 O171 1.241 . S
C168 O161 1.247 1_655 S
C168 O162 1.261 . S
C169 O164 1.259 . S
C169 O166 1.235 . S
O170 Co160 2.021 . S
O170 C167 1.238 . S
O171 Co165 2.052 . S
O171 C167 1.241 . S
O172 Co160 2.137 . S
O172 C163 1.247 . S
O173 Co160 2.244 . S
O173 C163 1.272 . S
O173 Co165 2.135 . S
Co174 O175 2.216 . S
Co174 O176 2.091 . S
Co174 O178 2.004 . S
Co174 O184 2.021 . S
Co174 O186 2.137 . S
Co174 O187 2.244 1_655 S
O175 Co174 2.216 . S
O175 C182 1.247 . S
O176 Co174 2.091 . S
O176 C182 1.261 . S
C177 O186 1.247 1_455 S
C177 O187 1.272 . S
O178 Co174 2.004 . S
O178 C183 1.259 . S
Co179 O180 2.061 . S
Co179 O185 2.052 . S
Co179 O187 2.135 . S
O180 Co179 2.061 . S
O180 C183 1.235 1_455 S
C181 O184 1.238 1_455 S
C181 O185 1.241 . S
C182 O175 1.247 . S
C182 O176 1.261 . S
C183 O178 1.259 . S
C183 O180 1.235 1_655 S
O184 Co174 2.021 . S
O184 C181 1.238 1_655 S
O185 Co179 2.052 . S
O185 C181 1.241 . S
O186 Co174 2.137 . S
O186 C177 1.247 1_655 S
O187 Co174 2.244 1_455 S
O187 C177 1.272 . S
O187 Co179 2.135 . S
Co188 O189 2.216 . S
Co188 O190 2.091 . S
Co188 O192 2.009 . S
Co188 O198 2.021 . S
Co188 O200 2.137 1_554 S
Co188 O201 2.244 1_554 S
O189 Co188 2.216 . S
O189 C196 1.247 . S
O190 Co188 2.091 . S
O190 C196 1.261 . S
C191 O200 1.247 . S
C191 O201 1.272 . S
O192 Co188 2.009 . S
O192 C197 1.257 1_554 S
Co193 O194 2.061 1_554 S
Co193 O199 2.052 . S
Co193 O201 2.135 1_554 S
O194 Co193 2.061 1_556 S
O194 C197 1.235 . S
C195 O198 1.238 . S
C195 O199 1.241 . S
C196 O189 1.247 . S
C196 O190 1.261 . S
C197 O192 1.257 1_556 S
C197 O194 1.235 . S
O198 Co188 2.021 . S
O198 C195 1.238 . S
O199 Co193 2.052 . S
O199 C195 1.241 . S
O200 Co188 2.137 1_556 S
O200 C191 1.247 . S
O201 Co188 2.244 1_556 S
O201 C191 1.272 . S
O201 Co193 2.135 1_556 S
Co202 O203 2.216 . S
Co202 O204 2.091 . S
Co202 O206 2.004 . S
Co202 O212 2.021 . S
Co202 O214 2.137 . S
Co202 O215 2.244 . S
O203 Co202 2.216 . S
O203 C210 1.247 . S
O204 Co202 2.091 . S
O204 C210 1.261 . S
C205 O214 1.247 . S
C205 O215 1.272 . S
O206 Co202 2.004 . S
O206 C211 1.259 . S
Co207 O208 2.061 . S
Co207 O213 2.052 . S
Co207 O215 2.135 . S
O208 Co207 2.061 . S
O208 C211 1.235 . S
C209 O212 1.238 . S
C209 O213 1.241 . S
C210 O203 1.247 . S
C210 O204 1.261 . S
C211 O206 1.259 . S
C211 O208 1.235 . S
O212 Co202 2.021 . S
O212 C209 1.238 . S
O213 Co207 2.052 . S
O213 C209 1.241 . S
O214 Co202 2.137 . S
O214 C205 1.247 . S
O215 Co202 2.244 . S
O215 C205 1.272 . S
O215 Co207 2.135 . S
C126 C5 1.587 . S
C140 C18 1.626 . S
C155 C31 1.661 . S
C42 C113 1.366 1_545 S
C57 C112 1.584 . S
C70 C127 1.493 . S
C141 C81 1.609 1_565 S
C154 C96 1.582 . S
C29 C182 1.747 . S
C196 C44 1.580 . S
C3 C211 1.608 . S
C168 C16 1.781 1_655 S
C83 C169 1.607 . S
C94 C183 1.402 . S
C197 C55 1.428 1_655 S
C68 C210 1.452 . S
C135 C1 1.506 . S
C153 C14 1.483 . S
C27 C111 1.492 . S
C49 C121 1.534 . S
C53 C149 2.135 . S
C107 C66 2.151 . S
C125 C88 2.379 . S
C139 C92 2.158 . S
C191 C36 2.350 . S
C209 C40 2.125 . S
C10 C163 2.353 . S
C177 C23 2.363 . S
C205 C79 1.512 . S
C101 C167 1.569 . S
C181 C62 1.567 . S
C195 C75 1.549 . S
