# Generated by pormake.
# Topology bcu-b, (8,8)-cn, num edge types: 1
# Building blocks:
#     Node 0, Type 0, BuildingBlock: VETTIZ_charged_sbu_0, # of connection points: 8
#     Node 1, Type 1, BuildingBlock: GIZVER_clean_sbu_0, # of connection points: 8
#     Edge 2, Type (0, 1), BuildingBlock: FUNLAD_clean_linker_0, # of connection points: 2
#     Edge 3, Type (0, 1), BuildingBlock: FUNLAD_clean_linker_0, # of connection points: 2
#     Edge 4, Type (0, 1), BuildingBlock: FUNLAD_clean_linker_0, # of connection points: 2
#     Edge 5, Type (0, 1), BuildingBlock: FUNLAD_clean_linker_0, # of connection points: 2
#     Edge 6, Type (0, 1), BuildingBlock: FUNLAD_clean_linker_0, # of connection points: 2
#     Edge 7, Type (0, 1), BuildingBlock: FUNLAD_clean_linker_0, # of connection points: 2
#     Edge 8, Type (0, 1), BuildingBlock: FUNLAD_clean_linker_0, # of connection points: 2
#     Edge 9, Type (0, 1), BuildingBlock: FUNLAD_clean_linker_0, # of connection points: 2
# Relax obj value: 0.083
# Max RMSD: 0.154
# Mean RMSD: 0.139
data_MOF--net-bcu-b--node1-VETTIZ_charged_sbu_0--node2-GIZVER_clean_sbu_0--edge1-FUNLAD_clean_linker_0
_symmetry_space_group_name_H-M    P1
_symmetry_Int_Tables_number       1
_symmetry_cell_setting            triclinic
loop_
_symmetry_equiv_pos_as_xyz
'x, y, z'
_cell_length_a     23.918594
_cell_length_b     25.726695
_cell_length_c     18.149326
_cell_angle_alpha  88.962978
_cell_angle_beta   92.640568
_cell_angle_gamma 99.716785
loop_
_atom_site_label
_atom_site_type_symbol
_atom_site_fract_x
_atom_site_fract_y
_atom_site_fract_z
_atom_type_partial_charge
Fe0 Fe 0.99228 0.95738 1.04364 0.0
O1 O 0.96206 1.01031 0.10348 0.0
Fe2 Fe 0.02728 0.02807 0.88092 0.0
Fe3 Fe 0.96663 1.01042 0.21222 0.0
O4 O 0.0298 0.02085 0.98874 0.0
O5 O 0.03034 0.02591 0.98908 0.0
O6 O 0.96273 1.01572 0.10392 0.0
Fe7 Fe 0.00166 0.0789 0.04958 0.0
C8 C 0.91213 0.90053 0.16237 0.0
O9 O 0.06361 0.96116 0.11252 0.0
O10 O 0.02488 0.9599 0.2219 0.0
O11 O 0.04877 0.13872 0.98547 0.0
O12 O 0.0895 0.09272 0.90016 0.0
O13 O 0.07777 0.97075 0.89152 0.0
O14 O 0.03109 0.9105 0.97362 0.0
O15 O 0.03232 0.073 0.22638 0.0
O16 O 0.07293 0.08423 0.11826 0.0
C17 C 0.06904 0.925 0.92446 0.0
O18 O 0.931 0.07685 0.98074 0.0
O19 O 0.971 0.08112 0.87217 0.0
O20 O 0.94734 0.89779 0.11016 0.0
O21 O 0.90698 0.94325 0.19691 0.0
C22 C 0.065 0.95255 0.18175 0.0
C23 C 0.07459 0.0903 0.18763 0.0
C24 C 0.92677 0.11334 0.17001 0.0
O25 O 0.9152 0.06718 0.20156 0.0
O26 O 0.9643 0.12614 0.11994 0.0
C27 C 0.08722 0.13459 0.93813 0.0
O28 O 0.95989 0.96711 0.86494 0.0
O29 O 0.92101 0.94979 0.97413 0.0
C30 C 0.93123 0.08915 0.91265 0.0
C31 C 0.91875 0.94668 0.90408 0.0
Co32 Co 0.57034 0.42132 0.51246 0.0
Co33 Co 0.57291 0.45288 0.6453 0.0
Co34 Co 0.49612 0.51996 0.54181 0.0
O35 O 0.56544 0.48688 0.55668 0.0
H36 H 0.59936 0.5125 0.5498 0.0
O37 O 0.4268 0.55278 0.52768 0.0
Co38 Co 0.42204 0.61855 0.57067 0.0
Co39 Co 0.41893 0.58621 0.44025 0.0
H40 H 0.39289 0.5272 0.53486 0.0
O41 O 0.64319 0.44513 0.68548 0.0
O42 O 0.58526 0.38882 0.61036 0.0
O43 O 0.50801 0.44351 0.70485 0.0
O44 O 0.45203 0.47819 0.62265 0.0
O45 O 0.53164 0.57455 0.61439 0.0
O46 O 0.41126 0.67635 0.61531 0.0
O47 O 0.3474 0.6033 0.58928 0.0
O48 O 0.50079 0.64251 0.55995 0.0
O49 O 0.54008 0.56165 0.46061 0.0
O50 O 0.48261 0.59499 0.37906 0.0
O51 O 0.40415 0.65012 0.47201 0.0
O52 O 0.3486 0.58896 0.40021 0.0
C53 C 0.63305 0.38982 0.46622 0.0
C54 C 0.45591 0.41624 0.47938 0.0
C55 C 0.45973 0.45361 0.68332 0.0
C56 C 0.63101 0.39971 0.65307 0.0
C57 C 0.36048 0.64926 0.62068 0.0
C58 C 0.5365 0.62407 0.60268 0.0
C59 C 0.53128 0.58545 0.39959 0.0
C60 C 0.35948 0.63611 0.42783 0.0
O61 O 0.58161 0.36358 0.46765 0.0
O62 O 0.64537 0.43602 0.49707 0.0
O63 O 0.46039 0.46578 0.46876 0.0
O64 O 0.49177 0.39762 0.52134 0.0
C65 C 0.16325 0.15806 0.18378 0.0
C66 C 0.12525 0.122 0.22422 0.0
C67 C 0.20824 0.19115 0.21992 0.0
C68 C 0.21624 0.18845 0.29716 0.0
C69 C 0.17968 0.15089 0.33693 0.0
C70 C 0.13439 0.11835 0.30104 0.0
C71 C 0.26242 0.22357 0.33818 0.0
C72 C 0.28327 0.27296 0.3157 0.0
C73 C 0.32731 0.30896 0.35923 0.0
C74 C 0.33047 0.36371 0.35042 0.0
C75 C 0.37156 0.39869 0.39022 0.0
C76 C 0.41079 0.37956 0.43922 0.0
H77 H 0.36707 0.24801 0.41461 0.0
C78 C 0.40785 0.32474 0.44763 0.0
C79 C 0.3668 0.28984 0.40795 0.0
H80 H 0.43779 0.30858 0.48424 0.0
H81 H 0.15744 0.16166 0.12445 0.0
H82 H 0.23668 0.21856 0.18726 0.0
H83 H 0.18535 0.14753 0.39631 0.0
H84 H 0.10622 0.09058 0.33366 0.0
H85 H 0.27644 0.20945 0.39148 0.0
H86 H 0.26512 0.28889 0.26601 0.0
H87 H 0.30085 0.37951 0.31288 0.0
H88 H 0.37279 0.44068 0.38213 0.0
C89 C 0.87902 0.15303 0.26884 0.0
C90 C 0.89642 0.15462 0.19582 0.0
C91 C 0.84918 0.19088 0.29388 0.0
C92 C 0.83541 0.23089 0.24615 0.0
C93 C 0.85257 0.23248 0.17303 0.0
C94 C 0.88364 0.19514 0.1483 0.0
C95 C 0.79908 0.26822 0.27018 0.0
C96 C 0.80119 0.28573 0.33993 0.0
C97 C 0.75886 0.31578 0.36757 0.0
C98 C 0.77473 0.35236 0.42445 0.0
C99 C 0.73425 0.37794 0.45529 0.0
C100 C 0.67697 0.36609 0.43109 0.0
H101 H 0.68768 0.27577 0.30021 0.0
C102 C 0.66114 0.32947 0.3743 0.0
C103 C 0.70166 0.30484 0.34248 0.0
H104 H 0.61722 0.31954 0.3547 0.0
H105 H 0.88843 0.12237 0.30683 0.0
H106 H 0.83528 0.18763 0.34998 0.0
H107 H 0.84178 0.26255 0.13496 0.0
H108 H 0.89627 0.19711 0.09163 0.0
H109 H 0.76938 0.28104 0.22947 0.0
H110 H 0.8346 0.2772 0.37862 0.0
H111 H 0.81842 0.36084 0.44542 0.0
H112 H 0.7474 0.40562 0.49957 0.0
C113 C 0.85488 0.80995 0.14149 0.0
C114 C 0.87768 0.85131 0.18923 0.0
C115 C 0.81921 0.76531 0.1684 0.0
C116 C 0.80685 0.76119 0.2437 0.0
C117 C 0.83201 0.8015 0.29147 0.0
C118 C 0.86643 0.84622 0.26453 0.0
C119 C 0.76678 0.7168 0.27507 0.0
C120 C 0.72048 0.69176 0.23745 0.0
C121 C 0.67333 0.65787 0.27503 0.0
C122 C 0.61756 0.65684 0.24687 0.0
C123 C 0.57149 0.6317 0.286 0.0
C124 C 0.58017 0.60645 0.354 0.0
H125 H 0.72472 0.62806 0.36271 0.0
C126 C 0.63614 0.60438 0.37973 0.0
C127 C 0.68225 0.62974 0.34062 0.0
H128 H 0.64446 0.58463 0.43129 0.0
H129 H 0.86328 0.81278 0.08328 0.0
H130 H 0.80142 0.73431 0.13038 0.0
H131 H 0.82361 0.7992 0.34972 0.0
H132 H 0.88421 0.87705 0.30293 0.0
H133 H 0.77134 0.70997 0.33411 0.0
H134 H 0.71306 0.70226 0.18 0.0
H135 H 0.60943 0.67766 0.19611 0.0
H136 H 0.52901 0.63351 0.2639 0.0
C137 C 0.145 0.90141 0.17375 0.0
C138 C 0.11192 0.92855 0.21639 0.0
C139 C 0.18427 0.87311 0.20788 0.0
C140 C 0.19139 0.87167 0.28532 0.0
C141 C 0.16114 0.90167 0.32746 0.0
C142 C 0.12144 0.92944 0.29348 0.0
C143 C 0.22812 0.83757 0.32366 0.0
C144 C 0.23255 0.78983 0.29766 0.0
C145 C 0.2638 0.7515 0.33682 0.0
C146 C 0.24952 0.69821 0.31763 0.0
C147 C 0.27922 0.66072 0.34944 0.0
C148 C 0.3246 0.67559 0.4009 0.0
H149 H 0.32117 0.8073 0.40533 0.0
C150 C 0.33825 0.72878 0.42173 0.0
C151 C 0.30821 0.76648 0.3899 0.0
H152 H 0.37307 0.74157 0.46108 0.0
H153 H 0.13906 0.90031 0.11422 0.0
H154 H 0.20833 0.85175 0.17362 0.0
H155 H 0.16643 0.9018 0.38708 0.0
H156 H 0.09723 0.95066 0.32782 0.0
H157 H 0.24681 0.84973 0.37757 0.0
H158 H 0.20893 0.77642 0.24698 0.0
H159 H 0.21548 0.68547 0.2771 0.0
H160 H 0.26729 0.62014 0.33212 0.0
C161 C 0.08805 0.8332 0.9008 0.0
C162 C 0.10662 0.88799 0.90388 0.0
C163 C 0.12331 0.80012 0.87345 0.0
C164 C 0.17783 0.82154 0.84973 0.0
C165 C 0.19681 0.87593 0.85638 0.0
C166 C 0.16169 0.90869 0.88254 0.0
C167 C 0.21708 0.78979 0.81781 0.0
C168 C 0.20133 0.74235 0.78574 0.0
C169 C 0.24232 0.71584 0.74684 0.0
C170 C 0.22224 0.67921 0.69106 0.0
C171 C 0.26026 0.65661 0.65024 0.0
C172 C 0.31907 0.67074 0.66415 0.0
H173 H 0.31882 0.7531 0.80786 0.0
C174 C 0.339 0.70585 0.72146 0.0
C175 C 0.30124 0.72743 0.76305 0.0
H176 H 0.38407 0.71632 0.73488 0.0
H177 H 0.04584 0.81622 0.91722 0.0
H178 H 0.10775 0.75816 0.87097 0.0
H179 H 0.23876 0.89356 0.83956 0.0
H180 H 0.17764 0.95065 0.88532 0.0
H181 H 0.26084 0.80932 0.8151 0.0
H182 H 0.15682 0.7245 0.7824 0.0
H183 H 0.17712 0.66893 0.6779 0.0
H184 H 0.24378 0.6292 0.60674 0.0
C185 C 0.12449 0.23194 0.92637 0.0
C186 C 0.13373 0.17942 0.92805 0.0
C187 C 0.16901 0.2731 0.91058 0.0
C188 C 0.22351 0.26212 0.8978 0.0
C189 C 0.23288 0.20984 0.9032 0.0
C190 C 0.18848 0.16896 0.91725 0.0
C191 C 0.27185 0.30322 0.87747 0.0
C192 C 0.26609 0.34643 0.83666 0.0
C193 C 0.31557 0.38008 0.80321 0.0
C194 C 0.30767 0.40506 0.735 0.0
C195 C 0.35429 0.43091 0.69721 0.0
C196 C 0.40988 0.43242 0.7271 0.0
H197 H 0.37855 0.36818 0.88935 0.0
C198 C 0.41743 0.41044 0.7976 0.0
C199 C 0.37085 0.38492 0.83546 0.0
H200 H 0.45952 0.41185 0.82302 0.0
H201 H 0.08265 0.24096 0.93495 0.0
H202 H 0.16074 0.3132 0.9084 0.0
H203 H 0.27448 0.20029 0.89431 0.0
H204 H 0.19703 0.1289 0.91937 0.0
H205 H 0.31397 0.29363 0.88848 0.0
H206 H 0.22385 0.3534 0.81945 0.0
H207 H 0.26553 0.40254 0.70924 0.0
H208 H 0.34682 0.4478 0.64329 0.0
C209 C 0.88603 0.1334 0.80661 0.0
C210 C 0.88767 0.11925 0.88184 0.0
C211 C 0.8493 0.16686 0.7793 0.0
C212 C 0.8133 0.18685 0.82674 0.0
C213 C 0.81375 0.17138 0.90132 0.0
C214 C 0.85015 0.13773 0.92852 0.0
C215 C 0.77847 0.22725 0.8024 0.0
C216 C 0.76186 0.23542 0.73176 0.0
C217 C 0.72984 0.27845 0.71027 0.0
C218 C 0.6894 0.27131 0.65119 0.0
C219 C 0.65755 0.31082 0.63184 0.0
C220 C 0.66647 0.35872 0.67029 0.0
H221 H 0.77217 0.33451 0.79133 0.0
C222 C 0.70866 0.36658 0.72738 0.0
C223 C 0.7399 0.32693 0.74724 0.0
H224 H 0.71707 0.40313 0.75775 0.0
H225 H 0.91438 0.11994 0.7691 0.0
H226 H 0.85116 0.17862 0.72182 0.0
H227 H 0.78666 0.18631 0.9392 0.0
H228 H 0.85019 0.12776 0.98676 0.0
H229 H 0.76528 0.25096 0.84527 0.0
H230 H 0.76966 0.2089 0.68899 0.0
H231 H 0.68149 0.23462 0.6211 0.0
H232 H 0.62567 0.30361 0.58723 0.0
C233 C 0.83046 0.87792 0.90509 0.0
C234 C 0.8681 0.91544 0.86627 0.0
C235 C 0.78546 0.84555 0.86769 0.0
C236 C 0.77702 0.85033 0.7907 0.0
C237 C 0.81328 0.88922 0.75262 0.0
C238 C 0.85854 0.92108 0.78974 0.0
C239 C 0.73074 0.81607 0.74819 0.0
C240 C 0.70951 0.76625 0.76862 0.0
C241 C 0.66555 0.73083 0.72385 0.0
C242 C 0.66144 0.676 0.73293 0.0
C243 C 0.6203 0.64135 0.69273 0.0
C244 C 0.5818 0.66075 0.64288 0.0
H245 H 0.62747 0.79221 0.66686 0.0
C246 C 0.58575 0.71566 0.6339 0.0
C247 C 0.62697 0.7503 0.67401 0.0
H248 H 0.55645 0.73203 0.59656 0.0
H249 H 0.83649 0.87269 0.96411 0.0
H250 H 0.75734 0.8171 0.89928 0.0
H251 H 0.80738 0.89423 0.69352 0.0
H252 H 0.88635 0.94992 0.75821 0.0
H253 H 0.71694 0.83131 0.69548 0.0
H254 H 0.72733 0.74944 0.81784 0.0
H255 H 0.69031 0.65984 0.77119 0.0
H256 H 0.6184 0.59932 0.70131 0.0
loop_
_geom_bond_atom_site_label_1
_geom_bond_atom_site_label_2
_geom_bond_distance
_geom_bond_site_symmetry_2
_ccdc_geom_bond_type
Fe0 O1 1.886 . S
Fe0 O4 1.715 1_554 S
Fe0 O9 2.077 1_655 S
Fe0 O14 1.935 1_654 S
Fe0 O20 2.077 . S
Fe0 O29 1.935 1_554 S
O1 Fe0 1.886 . S
O1 Fe3 1.715 1_655 S
Fe2 O4 1.886 1_545 S
Fe2 O5 1.715 1_655 S
Fe2 O12 1.935 1_655 S
Fe2 O13 2.077 1_645 S
Fe2 O19 1.935 . S
Fe2 O28 2.077 1_545 S
Fe3 O1 1.715 1_455 S
Fe3 O6 1.886 1_565 S
Fe3 O10 1.935 . S
Fe3 O15 2.077 1_565 S
Fe3 O21 1.935 1_455 S
Fe3 O25 2.077 1_465 S
O4 Fe0 1.715 1_556 S
O4 Fe2 1.886 1_565 S
O5 Fe2 1.715 1_455 S
O5 Fe7 1.886 . S
O6 Fe3 1.886 1_545 S
O6 Fe7 1.715 1_554 S
Fe7 O5 1.886 . S
Fe7 O6 1.715 1_556 S
Fe7 O11 2.077 . S
Fe7 O16 1.935 1_556 S
Fe7 O18 2.077 1_455 S
Fe7 O26 1.935 1_456 S
C8 O20 1.381 . S
C8 O21 1.421 . S
O9 Fe0 2.077 1_455 S
O9 C22 1.381 . S
O10 Fe3 1.935 . S
O10 C22 1.421 . S
O11 Fe7 2.077 . S
O11 C27 1.381 . S
O12 Fe2 1.935 1_455 S
O12 C27 1.421 . S
O13 Fe2 2.077 1_465 S
O13 C17 1.381 . S
O14 Fe0 1.935 1_456 S
O14 C17 1.421 . S
O15 Fe3 2.077 1_545 S
O15 C23 1.381 . S
O16 Fe7 1.935 1_554 S
O16 C23 1.421 . S
C17 O13 1.381 . S
C17 O14 1.421 . S
O18 Fe7 2.077 1_655 S
O18 C30 1.381 . S
O19 Fe2 1.935 . S
O19 C30 1.421 . S
O20 Fe0 2.077 . S
O20 C8 1.381 . S
O21 Fe3 1.935 1_655 S
O21 C8 1.421 . S
C22 O9 1.381 . S
C22 O10 1.421 . S
C23 O15 1.381 . S
C23 O16 1.421 . S
C24 O25 1.381 . S
C24 O26 1.421 . S
O25 Fe3 2.077 1_645 S
O25 C24 1.381 . S
O26 Fe7 1.935 1_654 S
O26 C24 1.421 . S
C27 O11 1.381 . S
C27 O12 1.421 . S
O28 Fe2 2.077 1_565 S
O28 C31 1.381 . S
O29 Fe0 1.935 1_556 S
O29 C31 1.421 . S
C30 O18 1.381 . S
C30 O19 1.421 . S
C31 O28 1.381 . S
C31 O29 1.421 . S
Co32 O35 2.042 . S
Co32 O42 2.264 . S
Co32 O61 2.286 . S
Co32 O62 2.069 . S
Co32 O64 2.015 . S
Co33 O35 2.122 . S
Co33 O41 2.073 . S
Co33 O42 2.327 . S
Co33 O43 1.976 . S
Co34 O35 2.087 . S
Co34 O37 2.087 . S
Co34 O44 2.111 . S
Co34 O45 2.143 . S
Co34 O49 2.111 . S
Co34 O63 2.143 . S
O35 Co32 2.042 . S
O35 Co33 2.122 . S
O35 Co34 2.087 . S
O35 H36 0.980 . S
H36 O35 0.980 . S
O37 Co34 2.087 . S
O37 Co38 2.042 . S
O37 Co39 2.122 . S
O37 H40 0.980 . S
Co38 O37 2.042 . S
Co38 O46 2.286 . S
Co38 O47 2.069 . S
Co38 O48 2.015 . S
Co38 O51 2.264 . S
Co39 O37 2.122 . S
Co39 O50 1.976 . S
Co39 O51 2.327 . S
Co39 O52 2.073 . S
H40 O37 0.980 . S
O41 Co33 2.073 . S
O41 C56 1.245 . S
O42 Co32 2.264 . S
O42 Co33 2.327 . S
O42 C56 1.257 . S
O43 Co33 1.976 . S
O43 C55 1.251 . S
O44 Co34 2.111 . S
O44 C55 1.274 . S
O45 Co34 2.143 . S
O45 C58 1.246 . S
O46 Co38 2.286 . S
O46 C57 1.259 . S
O47 Co38 2.069 . S
O47 C57 1.289 . S
O48 Co38 2.015 . S
O48 C58 1.257 . S
O49 Co34 2.111 . S
O49 C59 1.274 . S
O50 Co39 1.976 . S
O50 C59 1.251 . S
O51 Co38 2.264 . S
O51 Co39 2.327 . S
O51 C60 1.257 . S
O52 Co39 2.073 . S
O52 C60 1.245 . S
C53 O61 1.259 . S
C53 O62 1.289 . S
C54 O63 1.246 . S
C54 O64 1.257 . S
C55 O43 1.251 . S
C55 O44 1.274 . S
C56 O41 1.245 . S
C56 O42 1.257 . S
C57 O46 1.259 . S
C57 O47 1.289 . S
C58 O45 1.246 . S
C58 O48 1.257 . S
C59 O49 1.274 . S
C59 O50 1.251 . S
C60 O51 1.257 . S
C60 O52 1.245 . S
O61 Co32 2.286 . S
O61 C53 1.259 . S
O62 Co32 2.069 . S
O62 C53 1.289 . S
O63 Co34 2.143 . S
O63 C54 1.246 . S
O64 Co32 2.015 . S
O64 C54 1.257 . S
C65 C66 1.386 . S
C65 C67 1.383 . S
C65 H81 0.951 . S
C66 C65 1.386 . S
C66 C70 1.383 . S
C67 C65 1.383 . S
C67 C68 1.402 . S
C67 H82 0.951 . S
C68 C67 1.402 . S
C68 C69 1.375 . S
C68 C71 1.481 . S
C69 C68 1.375 . S
C69 C70 1.367 . S
C69 H83 0.951 . S
C70 C66 1.383 . S
C70 C69 1.367 . S
C70 H84 0.950 . S
C71 C68 1.481 . S
C71 C72 1.297 . S
C71 H85 0.950 . S
C72 C71 1.297 . S
C72 C73 1.479 . S
C72 H86 0.950 . S
C73 C72 1.479 . S
C73 C74 1.375 . S
C73 C79 1.404 . S
C74 C73 1.375 . S
C74 C75 1.369 . S
C74 H87 0.950 . S
C75 C74 1.369 . S
C75 C76 1.392 . S
C75 H88 0.951 . S
C76 C75 1.392 . S
C76 C78 1.384 . S
H77 C79 0.949 . S
C78 C76 1.384 . S
C78 C79 1.385 . S
C78 H80 0.950 . S
C79 C73 1.404 . S
C79 H77 0.949 . S
C79 C78 1.385 . S
H80 C78 0.950 . S
H81 C65 0.951 . S
H82 C67 0.951 . S
H83 C69 0.951 . S
H84 C70 0.950 . S
H85 C71 0.950 . S
H86 C72 0.950 . S
H87 C74 0.950 . S
H88 C75 0.951 . S
C89 C90 1.386 . S
C89 C91 1.383 . S
C89 H105 0.951 . S
C90 C89 1.386 . S
C90 C94 1.383 . S
C91 C89 1.383 . S
C91 C92 1.402 . S
C91 H106 0.951 . S
C92 C91 1.402 . S
C92 C93 1.375 . S
C92 C95 1.481 . S
C93 C92 1.375 . S
C93 C94 1.367 . S
C93 H107 0.951 . S
C94 C90 1.383 . S
C94 C93 1.367 . S
C94 H108 0.950 . S
C95 C92 1.481 . S
C95 C96 1.297 . S
C95 H109 0.950 . S
C96 C95 1.297 . S
C96 C97 1.479 . S
C96 H110 0.950 . S
C97 C96 1.479 . S
C97 C98 1.375 . S
C97 C103 1.404 . S
C98 C97 1.375 . S
C98 C99 1.369 . S
C98 H111 0.950 . S
C99 C98 1.369 . S
C99 C100 1.392 . S
C99 H112 0.951 . S
C100 C99 1.392 . S
C100 C102 1.384 . S
H101 C103 0.949 . S
C102 C100 1.384 . S
C102 C103 1.385 . S
C102 H104 0.950 . S
C103 C97 1.404 . S
C103 H101 0.949 . S
C103 C102 1.385 . S
H104 C102 0.950 . S
H105 C89 0.951 . S
H106 C91 0.951 . S
H107 C93 0.951 . S
H108 C94 0.950 . S
H109 C95 0.950 . S
H110 C96 0.950 . S
H111 C98 0.950 . S
H112 C99 0.951 . S
C113 C114 1.386 . S
C113 C115 1.383 . S
C113 H129 0.951 . S
C114 C113 1.386 . S
C114 C118 1.383 . S
C115 C113 1.383 . S
C115 C116 1.402 . S
C115 H130 0.951 . S
C116 C115 1.402 . S
C116 C117 1.375 . S
C116 C119 1.481 . S
C117 C116 1.375 . S
C117 C118 1.367 . S
C117 H131 0.951 . S
C118 C114 1.383 . S
C118 C117 1.367 . S
C118 H132 0.950 . S
C119 C116 1.481 . S
C119 C120 1.297 . S
C119 H133 0.950 . S
C120 C119 1.297 . S
C120 C121 1.479 . S
C120 H134 0.950 . S
C121 C120 1.479 . S
C121 C122 1.375 . S
C121 C127 1.404 . S
C122 C121 1.375 . S
C122 C123 1.369 . S
C122 H135 0.950 . S
C123 C122 1.369 . S
C123 C124 1.392 . S
C123 H136 0.951 . S
C124 C123 1.392 . S
C124 C126 1.384 . S
H125 C127 0.949 . S
C126 C124 1.384 . S
C126 C127 1.385 . S
C126 H128 0.950 . S
C127 C121 1.404 . S
C127 H125 0.949 . S
C127 C126 1.385 . S
H128 C126 0.950 . S
H129 C113 0.951 . S
H130 C115 0.951 . S
H131 C117 0.951 . S
H132 C118 0.950 . S
H133 C119 0.950 . S
H134 C120 0.950 . S
H135 C122 0.950 . S
H136 C123 0.951 . S
C137 C138 1.386 . S
C137 C139 1.383 . S
C137 H153 0.951 . S
C138 C137 1.386 . S
C138 C142 1.383 . S
C139 C137 1.383 . S
C139 C140 1.402 . S
C139 H154 0.951 . S
C140 C139 1.402 . S
C140 C141 1.375 . S
C140 C143 1.481 . S
C141 C140 1.375 . S
C141 C142 1.367 . S
C141 H155 0.951 . S
C142 C138 1.383 . S
C142 C141 1.367 . S
C142 H156 0.950 . S
C143 C140 1.481 . S
C143 C144 1.297 . S
C143 H157 0.950 . S
C144 C143 1.297 . S
C144 C145 1.479 . S
C144 H158 0.950 . S
C145 C144 1.479 . S
C145 C146 1.375 . S
C145 C151 1.404 . S
C146 C145 1.375 . S
C146 C147 1.369 . S
C146 H159 0.950 . S
C147 C146 1.369 . S
C147 C148 1.392 . S
C147 H160 0.951 . S
C148 C147 1.392 . S
C148 C150 1.384 . S
H149 C151 0.949 . S
C150 C148 1.384 . S
C150 C151 1.385 . S
C150 H152 0.950 . S
C151 C145 1.404 . S
C151 H149 0.949 . S
C151 C150 1.385 . S
H152 C150 0.950 . S
H153 C137 0.951 . S
H154 C139 0.951 . S
H155 C141 0.951 . S
H156 C142 0.950 . S
H157 C143 0.950 . S
H158 C144 0.950 . S
H159 C146 0.950 . S
H160 C147 0.951 . S
C161 C162 1.386 . S
C161 C163 1.383 . S
C161 H177 0.951 . S
C162 C161 1.386 . S
C162 C166 1.383 . S
C163 C161 1.383 . S
C163 C164 1.402 . S
C163 H178 0.951 . S
C164 C163 1.402 . S
C164 C165 1.375 . S
C164 C167 1.481 . S
C165 C164 1.375 . S
C165 C166 1.367 . S
C165 H179 0.951 . S
C166 C162 1.383 . S
C166 C165 1.367 . S
C166 H180 0.950 . S
C167 C164 1.481 . S
C167 C168 1.297 . S
C167 H181 0.950 . S
C168 C167 1.297 . S
C168 C169 1.479 . S
C168 H182 0.950 . S
C169 C168 1.479 . S
C169 C170 1.375 . S
C169 C175 1.404 . S
C170 C169 1.375 . S
C170 C171 1.369 . S
C170 H183 0.950 . S
C171 C170 1.369 . S
C171 C172 1.392 . S
C171 H184 0.951 . S
C172 C171 1.392 . S
C172 C174 1.384 . S
H173 C175 0.949 . S
C174 C172 1.384 . S
C174 C175 1.385 . S
C174 H176 0.950 . S
C175 C169 1.404 . S
C175 H173 0.949 . S
C175 C174 1.385 . S
H176 C174 0.950 . S
H177 C161 0.951 . S
H178 C163 0.951 . S
H179 C165 0.951 . S
H180 C166 0.950 . S
H181 C167 0.950 . S
H182 C168 0.950 . S
H183 C170 0.950 . S
H184 C171 0.951 . S
C185 C186 1.386 . S
C185 C187 1.383 . S
C185 H201 0.951 . S
C186 C185 1.386 . S
C186 C190 1.383 . S
C187 C185 1.383 . S
C187 C188 1.402 . S
C187 H202 0.951 . S
C188 C187 1.402 . S
C188 C189 1.375 . S
C188 C191 1.481 . S
C189 C188 1.375 . S
C189 C190 1.367 . S
C189 H203 0.951 . S
C190 C186 1.383 . S
C190 C189 1.367 . S
C190 H204 0.950 . S
C191 C188 1.481 . S
C191 C192 1.297 . S
C191 H205 0.950 . S
C192 C191 1.297 . S
C192 C193 1.479 . S
C192 H206 0.950 . S
C193 C192 1.479 . S
C193 C194 1.375 . S
C193 C199 1.404 . S
C194 C193 1.375 . S
C194 C195 1.369 . S
C194 H207 0.950 . S
C195 C194 1.369 . S
C195 C196 1.392 . S
C195 H208 0.951 . S
C196 C195 1.392 . S
C196 C198 1.384 . S
H197 C199 0.949 . S
C198 C196 1.384 . S
C198 C199 1.385 . S
C198 H200 0.950 . S
C199 C193 1.404 . S
C199 H197 0.949 . S
C199 C198 1.385 . S
H200 C198 0.950 . S
H201 C185 0.951 . S
H202 C187 0.951 . S
H203 C189 0.951 . S
H204 C190 0.950 . S
H205 C191 0.950 . S
H206 C192 0.950 . S
H207 C194 0.950 . S
H208 C195 0.951 . S
C209 C210 1.386 . S
C209 C211 1.383 . S
C209 H225 0.951 . S
C210 C209 1.386 . S
C210 C214 1.383 . S
C211 C209 1.383 . S
C211 C212 1.402 . S
C211 H226 0.951 . S
C212 C211 1.402 . S
C212 C213 1.375 . S
C212 C215 1.481 . S
C213 C212 1.375 . S
C213 C214 1.367 . S
C213 H227 0.951 . S
C214 C210 1.383 . S
C214 C213 1.367 . S
C214 H228 0.950 . S
C215 C212 1.481 . S
C215 C216 1.297 . S
C215 H229 0.950 . S
C216 C215 1.297 . S
C216 C217 1.479 . S
C216 H230 0.950 . S
C217 C216 1.479 . S
C217 C218 1.375 . S
C217 C223 1.404 . S
C218 C217 1.375 . S
C218 C219 1.369 . S
C218 H231 0.950 . S
C219 C218 1.369 . S
C219 C220 1.392 . S
C219 H232 0.951 . S
C220 C219 1.392 . S
C220 C222 1.384 . S
H221 C223 0.949 . S
C222 C220 1.384 . S
C222 C223 1.385 . S
C222 H224 0.950 . S
C223 C217 1.404 . S
C223 H221 0.949 . S
C223 C222 1.385 . S
H224 C222 0.950 . S
H225 C209 0.951 . S
H226 C211 0.951 . S
H227 C213 0.951 . S
H228 C214 0.950 . S
H229 C215 0.950 . S
H230 C216 0.950 . S
H231 C218 0.950 . S
H232 C219 0.951 . S
C233 C234 1.386 . S
C233 C235 1.383 . S
C233 H249 0.951 . S
C234 C233 1.386 . S
C234 C238 1.383 . S
C235 C233 1.383 . S
C235 C236 1.402 . S
C235 H250 0.951 . S
C236 C235 1.402 . S
C236 C237 1.375 . S
C236 C239 1.481 . S
C237 C236 1.375 . S
C237 C238 1.367 . S
C237 H251 0.951 . S
C238 C234 1.383 . S
C238 C237 1.367 . S
C238 H252 0.950 . S
C239 C236 1.481 . S
C239 C240 1.297 . S
C239 H253 0.950 . S
C240 C239 1.297 . S
C240 C241 1.479 . S
C240 H254 0.950 . S
C241 C240 1.479 . S
C241 C242 1.375 . S
C241 C247 1.404 . S
C242 C241 1.375 . S
C242 C243 1.369 . S
C242 H255 0.950 . S
C243 C242 1.369 . S
C243 C244 1.392 . S
C243 H256 0.951 . S
C244 C243 1.392 . S
C244 C246 1.384 . S
H245 C247 0.949 . S
C246 C244 1.384 . S
C246 C247 1.385 . S
C246 H248 0.950 . S
C247 C241 1.404 . S
C247 H245 0.949 . S
C247 C246 1.385 . S
H248 C246 0.950 . S
H249 C233 0.951 . S
H250 C235 0.951 . S
H251 C237 0.951 . S
H252 C238 0.950 . S
H253 C239 0.950 . S
H254 C240 0.950 . S
H255 C242 0.950 . S
H256 C243 0.951 . S
C66 C23 1.436 . S
C76 C54 1.478 . S
C90 C24 1.604 . S
C100 C53 1.667 . S
C114 C8 1.413 . S
C124 C59 1.427 . S
C138 C22 1.470 . S
C148 C60 1.347 . S
C162 C17 1.620 . S
C172 C57 1.673 . S
C196 C55 1.356 . S
C186 C27 1.453 . S
C210 C30 1.449 . S
C220 C56 1.337 . S
C244 C58 1.380 . S
C234 C31 1.455 . S
