# Generated by pormake.
# Topology anh, (6,3)-cn, num edge types: 1
# Building blocks:
#     Node 0, Type 0, BuildingBlock: BETFAJ_clean_sbu_0, # of connection points: 6
#     Node 1, Type 0, BuildingBlock: BETFAJ_clean_sbu_0, # of connection points: 6
#     Node 2, Type 0, BuildingBlock: BETFAJ_clean_sbu_0, # of connection points: 6
#     Node 3, Type 1, BuildingBlock: OLANEW_clean_sbu_2, # of connection points: 3
#     Node 4, Type 1, BuildingBlock: OLANEW_clean_sbu_2, # of connection points: 3
#     Node 5, Type 1, BuildingBlock: OLANEW_clean_sbu_2, # of connection points: 3
#     Node 6, Type 1, BuildingBlock: OLANEW_clean_sbu_2, # of connection points: 3
#     Node 7, Type 1, BuildingBlock: OLANEW_clean_sbu_2, # of connection points: 3
#     Node 8, Type 1, BuildingBlock: OLANEW_clean_sbu_2, # of connection points: 3
#     Edge 9, Type (0, 1), None
#     Edge 10, Type (0, 1), None
#     Edge 11, Type (0, 1), None
#     Edge 12, Type (0, 1), None
#     Edge 13, Type (0, 1), None
#     Edge 14, Type (0, 1), None
#     Edge 15, Type (0, 1), None
#     Edge 16, Type (0, 1), None
#     Edge 17, Type (0, 1), None
#     Edge 18, Type (0, 1), None
#     Edge 19, Type (0, 1), None
#     Edge 20, Type (0, 1), None
#     Edge 21, Type (0, 1), None
#     Edge 22, Type (0, 1), None
#     Edge 23, Type (0, 1), None
#     Edge 24, Type (0, 1), None
#     Edge 25, Type (0, 1), None
#     Edge 26, Type (0, 1), None
# Relax obj value: 0.341
# Max RMSD: 0.260
# Mean RMSD: 0.149
data_MOF--net-anh--node1-BETFAJ_clean_sbu_0--node2-OLANEW_clean_sbu_2--edge1-none
_symmetry_space_group_name_H-M    P1
_symmetry_Int_Tables_number       1
_symmetry_cell_setting            triclinic
loop_
_symmetry_equiv_pos_as_xyz
'x, y, z'
_cell_length_a     19.934677
_cell_length_b     24.321967
_cell_length_c     22.510574
_cell_angle_alpha  91.804692
_cell_angle_beta   90.574129
_cell_angle_gamma 133.39915
loop_
_atom_site_label
_atom_site_type_symbol
_atom_site_fract_x
_atom_site_fract_y
_atom_site_fract_z
_atom_type_partial_charge
Sm0 Sm 0.12366 0.47691 0.18863 0.0
Sm1 Sm 1.01134 0.52963 0.19601 0.0
C2 C 0.25007 0.4778 0.15583 0.0
C3 C 0.35127 0.54141 0.16155 0.0
C4 C 0.40461 0.56227 0.11175 0.0
C5 C 0.49927 0.62704 0.11523 0.0
C6 C 0.54227 0.67139 0.16862 0.0
C7 C 0.48875 0.65186 0.21803 0.0
C8 C 0.39395 0.58734 0.21457 0.0
C9 C 0.08092 0.48964 0.29899 0.0
C10 C 0.23649 0.66139 0.20261 0.0
C11 C 0.91096 0.55384 0.23981 0.0
C12 C 0.81252 0.51197 0.23501 0.0
C13 C 0.78045 0.54383 0.25886 0.0
C14 C 0.68639 0.50369 0.25391 0.0
C15 C 0.62329 0.43103 0.22517 0.0
C16 C 0.65587 0.39882 0.2025 0.0
C17 C 0.74977 0.43909 0.20724 0.0
C18 C 1.01588 0.48853 0.08033 0.0
C19 C 0.9018 0.34745 0.1945 0.0
O20 O 0.20806 0.48687 0.11816 0.0
O21 O 0.20705 0.44913 0.2056 0.0
O22 O 0.10537 0.53361 0.25777 0.0
O23 O 0.08405 0.43921 0.28404 0.0
O24 O 0.23872 0.60815 0.19892 0.0
O25 O 0.15905 0.64661 0.20184 0.0
O26 O 0.93043 0.51988 0.26851 0.0
O27 O 0.95677 0.58404 0.19108 0.0
O28 O 0.04927 0.48964 0.12799 0.0
O29 O 0.97409 0.5111 0.0924 0.0
O30 O 0.90371 0.40153 0.21 0.0
O31 O 0.97468 0.36094 0.17568 0.0
H32 H 0.37276 0.5292 0.06994 0.0
H33 H 0.53927 0.64303 0.07615 0.0
H34 H 0.52039 0.68582 0.25946 0.0
H35 H 0.35395 0.57406 0.25319 0.0
H36 H 0.8282 0.59994 0.28073 0.0
H37 H 0.66347 0.5302 0.27148 0.0
H38 H 0.60927 0.34326 0.17974 0.0
H39 H 0.7736 0.41364 0.18873 0.0
Sm40 Sm 0.61905 -0.01382 0.50736 0.0
Sm41 Sm 0.51261 0.04196 0.49831 0.0
C42 C 0.68574 0.93291 0.55446 0.0
C43 C 0.66159 0.86085 0.55695 0.0
C44 C 0.57496 0.79264 0.53522 0.0
C45 C 0.54826 0.72342 0.54494 0.0
C46 C 0.60774 0.72151 0.57675 0.0
C47 C 0.69602 0.79038 0.59606 0.0
C48 C 0.72258 0.85942 0.58628 0.0
C49 C 0.58609 -0.00578 0.38932 0.0
C50 C 0.39189 0.86228 0.48409 0.0
C51 C 0.45341 0.10938 0.47622 0.0
C52 C 0.48076 0.18113 0.49538 0.0
C53 C 0.56952 0.24226 0.52038 0.0
C54 C 0.59287 0.3085 0.54171 0.0
C55 C 0.52765 0.3146 0.53878 0.0
C56 C 0.4391 0.25341 0.51309 0.0
C57 C 0.41596 0.1873 0.49161 0.0
C58 C 0.535 0.01048 0.60926 0.0
C59 C 0.74292 0.16911 0.50857 0.0
O60 O 0.63039 0.93571 0.58188 0.0
O61 O 0.71157 0.96528 0.50337 0.0
O62 O 0.56134 0.0054 0.43549 0.0
O63 O 0.62846 0.9733 0.40494 0.0
O64 O 0.4636 0.87611 0.50801 0.0
O65 O 0.39758 0.91676 0.46639 0.0
O66 O 0.51 0.1141 0.4422 0.0
O67 O 0.42029 0.0606 0.51746 0.0
O68 O 0.59477 0.0448 0.57034 0.0
O69 O 0.46145 -0.00462 0.59153 0.0
O70 O 0.66604 0.15503 0.50251 0.0
O71 O 0.74365 0.11537 0.51366 0.0
H72 H 0.52689 0.79283 0.5126 0.0
H73 H 0.47985 0.67146 0.52944 0.0
H74 H 0.74366 0.79102 0.62049 0.0
H75 H 0.78961 0.91161 0.60346 0.0
H76 H 0.62035 0.23839 0.5242 0.0
H77 H 0.66157 0.35441 0.56133 0.0
H78 H 0.3872 0.25616 0.51018 0.0
H79 H 0.34692 0.1405 0.47282 0.0
Sm80 Sm 0.56263 0.54674 0.90836 0.0
Sm81 Sm 0.43758 0.3722 0.91156 0.0
C82 C 0.6605 0.68588 0.87331 0.0
C83 C 0.64229 0.73469 0.86623 0.0
C84 C 0.55411 0.70656 0.87586 0.0
C85 C 0.53429 0.75044 0.86428 0.0
C86 C 0.60243 0.8235 0.84306 0.0
C87 C 0.69127 0.85196 0.83447 0.0
C88 C 0.71086 0.80776 0.84578 0.0
C89 C 0.49487 0.48784 0.01696 0.0
C90 C 0.33891 0.43552 0.91683 0.0
C91 C 0.36212 0.23172 0.92502 0.0
C92 C 0.39474 0.19282 0.92013 0.0
C93 C 0.48873 0.23286 0.9291 0.0
C94 C 0.52179 0.19948 0.91208 0.0
C95 C 0.46133 0.12551 0.88571 0.0
C96 C 0.3663 0.08397 0.88062 0.0
C97 C 0.33347 0.11748 0.89748 0.0
C98 C 0.46196 0.42794 0.80164 0.0
C99 C 0.66702 0.48746 0.92427 0.0
O100 O 0.61188 0.62575 0.83672 0.0
O101 O 0.66638 0.67165 0.92787 0.0
O102 O 0.52187 0.46767 0.97992 0.0
O103 O 0.51209 0.54707 1.0005 0.0
O104 O 0.4141 0.49635 0.89247 0.0
O105 O 0.3342 0.38229 0.93678 0.0
O106 O 0.39485 0.28096 0.96985 0.0
O107 O 0.35878 0.25552 0.87496 0.0
O108 O 0.52409 0.45707 0.84168 0.0
O109 O 0.38236 0.36699 0.8187 0.0
O110 O 0.58471 0.41705 0.91912 0.0
O111 O 0.67788 0.54741 0.92148 0.0
H112 H 0.50009 0.65009 0.89138 0.0
H113 H 0.46534 0.72686 0.87166 0.0
H114 H 0.74536 0.90797 0.81822 0.0
H115 H 0.77912 0.83018 0.83766 0.0
H116 H 0.53733 0.29103 0.94666 0.0
H117 H 0.59527 0.23294 0.91698 0.0
H118 H 0.31766 0.02676 0.86083 0.0
H119 H 0.26078 0.08576 0.88992 0.0
O120 O 0.62866 0.09018 0.32696 0.0
Cd121 Cd 0.64716 0.124 0.22251 0.0
O122 O 0.57579 -0.01496 0.28316 0.0
Cd123 Cd 0.50906 0.86762 0.27321 0.0
O124 O 0.39284 0.75264 0.23811 0.0
C125 C 0.3232 0.73945 0.21724 0.0
O126 O 0.3253 0.79462 0.21737 0.0
C127 C 0.59472 0.02333 0.33093 0.0
C128 C 0.81431 0.26937 0.20207 0.0
O129 O 0.74324 0.25666 0.21776 0.0
O130 O 0.80754 0.21315 0.19597 0.0
O131 O 0.56158 0.49303 0.72199 0.0
Cd132 Cd 0.59267 0.51074 0.61589 0.0
O133 O 0.41455 0.43018 0.70549 0.0
Cd134 Cd 0.44573 0.48512 0.62166 0.0
O135 O 0.49498 0.58607 0.57867 0.0
C136 C 0.57573 0.64863 0.59408 0.0
O137 O 0.62667 0.64828 0.63126 0.0
C138 C 0.48022 0.45202 0.74047 0.0
C139 C 0.55087 0.38334 0.564 0.0
O140 O 0.63175 0.43988 0.58662 0.0
O141 O 0.49013 0.38743 0.56508 0.0
O142 O 0.0784 0.45541 0.01629 0.0
Cd143 Cd 0.10407 0.41183 0.92508 0.0
O144 O 0.97686 0.45547 0.97604 0.0
Cd145 Cd 0.87189 0.46336 0.97039 0.0
O146 O 0.74519 0.44649 0.94786 0.0
C147 C 0.75022 0.50048 0.93617 0.0
O148 O 0.74124 0.44347 0.94774 0.0
C149 C 1.0241 0.46597 0.02143 0.0
C150 C 0.25872 0.4277 0.9215 0.0
O151 O 0.26323 0.47994 0.90451 0.0
O152 O 0.18267 0.36882 0.94233 0.0
O153 O 0.10448 0.56778 0.3783 0.0
Cd154 Cd 0.1284 0.63237 0.47327 0.0
O155 O 1.01967 0.44527 0.39261 0.0
Cd156 Cd 0.96114 0.41521 0.4804 0.0
O157 O 0.83381 0.30158 0.5041 0.0
C158 C 0.83179 0.24823 0.50661 0.0
O159 O 0.9083 0.26318 0.50026 0.0
C160 C 0.0666 0.50154 0.35964 0.0
C161 C 0.30159 0.78322 0.47917 0.0
O162 O 0.29266 0.72922 0.49749 0.0
O163 O 0.22928 0.76669 0.45815 0.0
O164 O 0.50219 0.95558 0.70266 0.0
Cd165 Cd 0.53915 0.95669 0.80781 0.0
O166 O 0.62506 0.07757 0.69794 0.0
Cd167 Cd 0.63067 0.09676 0.79425 0.0
O168 O 0.58411 0.13494 0.85644 0.0
C169 C 0.49754 0.09463 0.85785 0.0
O170 O 0.44135 0.02972 0.82656 0.0
C171 C 0.55699 0.01386 0.67231 0.0
C172 C 0.58065 0.86943 0.82996 0.0
O173 O 0.49804 0.84141 0.83288 0.0
O174 O 0.6437 0.93843 0.81566 0.0
O175 O 0.38805 0.38242 0.07501 0.0
Cd176 Cd 0.35394 0.33124 0.17289 0.0
O177 O 0.50117 0.49172 0.12204 0.0
Cd178 Cd 0.62598 0.6124 0.12494 0.0
O179 O 0.69582 0.72794 0.15451 0.0
C180 C 0.64307 0.73634 0.17279 0.0
O181 O 0.67879 0.80152 0.19792 0.0
C182 C 0.45834 0.45309 0.07375 0.0
C183 C 0.52598 0.39218 0.21353 0.0
O184 O 0.46976 0.32794 0.18437 0.0
O185 O 0.49779 0.42474 0.22758 0.0
loop_
_geom_bond_atom_site_label_1
_geom_bond_atom_site_label_2
_geom_bond_distance
_geom_bond_site_symmetry_2
_ccdc_geom_bond_type
Sm0 C2 2.846 . S
Sm0 O20 2.543 . S
Sm0 O21 2.450 . S
Sm0 O22 2.681 . S
Sm0 O23 2.464 . S
Sm0 O24 2.396 . S
Sm0 O28 2.386 . S
Sm0 O31 2.408 1_455 S
Sm1 C11 2.846 . S
Sm1 O22 2.386 1_655 S
Sm1 O25 2.408 1_655 S
Sm1 O26 2.543 . S
Sm1 O27 2.450 . S
Sm1 O28 2.681 1_655 S
Sm1 O29 2.464 . S
Sm1 O30 2.396 . S
C2 Sm0 2.846 . S
C2 C3 1.506 . S
C2 O20 1.261 . S
C2 O21 1.242 . S
C3 C2 1.506 . S
C3 C4 1.358 . S
C3 C8 1.382 . S
C4 C3 1.358 . S
C4 C5 1.385 . S
C4 H32 0.930 . S
C5 C4 1.385 . S
C5 C6 1.395 . S
C5 H33 0.929 . S
C6 C5 1.395 . S
C6 C7 1.335 . S
C7 C6 1.335 . S
C7 C8 1.398 . S
C7 H34 0.930 . S
C8 C3 1.382 . S
C8 C7 1.398 . S
C8 H35 0.929 . S
C9 O22 1.271 . S
C9 O23 1.251 . S
C10 O24 1.252 . S
C10 O25 1.272 . S
C11 Sm1 2.846 . S
C11 C12 1.506 . S
C11 O26 1.261 . S
C11 O27 1.242 . S
C12 C11 1.506 . S
C12 C13 1.358 . S
C12 C17 1.382 . S
C13 C12 1.358 . S
C13 C14 1.385 . S
C13 H36 0.930 . S
C14 C13 1.385 . S
C14 C15 1.395 . S
C14 H37 0.929 . S
C15 C14 1.395 . S
C15 C16 1.335 . S
C16 C15 1.335 . S
C16 C17 1.398 . S
C16 H38 0.930 . S
C17 C12 1.382 . S
C17 C16 1.398 . S
C17 H39 0.929 . S
C18 O28 1.271 . S
C18 O29 1.251 1_455 S
C19 O30 1.252 . S
C19 O31 1.272 . S
O20 Sm0 2.543 . S
O20 C2 1.261 . S
O21 Sm0 2.450 . S
O21 C2 1.242 . S
O22 Sm0 2.681 . S
O22 Sm1 2.386 1_455 S
O22 C9 1.271 . S
O23 Sm0 2.464 . S
O23 C9 1.251 . S
O24 Sm0 2.396 . S
O24 C10 1.252 . S
O25 Sm1 2.408 1_455 S
O25 C10 1.272 . S
O26 Sm1 2.543 . S
O26 C11 1.261 . S
O27 Sm1 2.450 . S
O27 C11 1.242 . S
O28 Sm0 2.386 . S
O28 Sm1 2.681 1_455 S
O28 C18 1.271 . S
O29 Sm1 2.464 . S
O29 C18 1.251 1_655 S
O30 Sm1 2.396 . S
O30 C19 1.252 . S
O31 Sm0 2.408 1_655 S
O31 C19 1.272 . S
H32 C4 0.930 . S
H33 C5 0.929 . S
H34 C7 0.930 . S
H35 C8 0.929 . S
H36 C13 0.930 . S
H37 C14 0.929 . S
H38 C16 0.930 . S
H39 C17 0.929 . S
Sm40 C42 2.845 1_545 S
Sm40 O60 2.542 1_545 S
Sm40 O61 2.449 1_545 S
Sm40 O62 2.682 . S
Sm40 O63 2.464 1_545 S
Sm40 O64 2.395 1_545 S
Sm40 O68 2.378 . S
Sm40 O71 2.409 . S
Sm41 C51 2.846 . S
Sm41 O62 2.386 . S
Sm41 O65 2.408 1_545 S
Sm41 O66 2.543 . S
Sm41 O67 2.450 . S
Sm41 O68 2.695 . S
Sm41 O69 2.464 . S
Sm41 O70 2.396 . S
C42 Sm40 2.845 1_565 S
C42 C43 1.506 . S
C42 O60 1.261 . S
C42 O61 1.242 . S
C43 C42 1.506 . S
C43 C44 1.358 . S
C43 C48 1.382 . S
C44 C43 1.358 . S
C44 C45 1.385 . S
C44 H72 0.930 . S
C45 C44 1.385 . S
C45 C46 1.395 . S
C45 H73 0.929 . S
C46 C45 1.395 . S
C46 C47 1.335 . S
C47 C46 1.335 . S
C47 C48 1.398 . S
C47 H74 0.930 . S
C48 C43 1.382 . S
C48 C47 1.398 . S
C48 H75 0.929 . S
C49 O62 1.271 . S
C49 O63 1.251 1_545 S
C50 O64 1.252 . S
C50 O65 1.272 . S
C51 Sm41 2.846 . S
C51 C52 1.506 . S
C51 O66 1.261 . S
C51 O67 1.242 . S
C52 C51 1.506 . S
C52 C53 1.358 . S
C52 C57 1.382 . S
C53 C52 1.358 . S
C53 C54 1.385 . S
C53 H76 0.930 . S
C54 C53 1.385 . S
C54 C55 1.395 . S
C54 H77 0.929 . S
C55 C54 1.395 . S
C55 C56 1.335 . S
C56 C55 1.335 . S
C56 C57 1.398 . S
C56 H78 0.930 . S
C57 C52 1.382 . S
C57 C56 1.398 . S
C57 H79 0.929 . S
C58 O68 1.279 . S
C58 O69 1.251 . S
C59 O70 1.252 . S
C59 O71 1.272 . S
O60 Sm40 2.542 1_565 S
O60 C42 1.261 . S
O61 Sm40 2.449 1_565 S
O61 C42 1.242 . S
O62 Sm40 2.682 . S
O62 Sm41 2.386 . S
O62 C49 1.271 . S
O63 Sm40 2.464 1_565 S
O63 C49 1.251 1_565 S
O64 Sm40 2.395 1_565 S
O64 C50 1.252 . S
O65 Sm41 2.408 1_565 S
O65 C50 1.272 . S
O66 Sm41 2.543 . S
O66 C51 1.261 . S
O67 Sm41 2.450 . S
O67 C51 1.242 . S
O68 Sm40 2.378 . S
O68 Sm41 2.695 . S
O68 C58 1.279 . S
O69 Sm41 2.464 . S
O69 C58 1.251 . S
O70 Sm41 2.396 . S
O70 C59 1.252 . S
O71 Sm40 2.409 . S
O71 C59 1.272 . S
H72 C44 0.930 . S
H73 C45 0.929 . S
H74 C47 0.930 . S
H75 C48 0.929 . S
H76 C53 0.930 . S
H77 C54 0.929 . S
H78 C56 0.930 . S
H79 C57 0.929 . S
Sm80 C82 2.846 . S
Sm80 O100 2.543 . S
Sm80 O101 2.450 . S
Sm80 O102 2.681 . S
Sm80 O103 2.464 . S
Sm80 O104 2.396 . S
Sm80 O108 2.386 . S
Sm80 O111 2.408 . S
Sm81 C91 2.846 . S
Sm81 O102 2.386 . S
Sm81 O105 2.408 . S
Sm81 O106 2.543 . S
Sm81 O107 2.450 . S
Sm81 O108 2.681 . S
Sm81 O109 2.464 . S
Sm81 O110 2.396 . S
C82 Sm80 2.846 . S
C82 C83 1.506 . S
C82 O100 1.261 . S
C82 O101 1.242 . S
C83 C82 1.506 . S
C83 C84 1.358 . S
C83 C88 1.382 . S
C84 C83 1.358 . S
C84 C85 1.385 . S
C84 H112 0.930 . S
C85 C84 1.385 . S
C85 C86 1.395 . S
C85 H113 0.929 . S
C86 C85 1.395 . S
C86 C87 1.335 . S
C87 C86 1.335 . S
C87 C88 1.398 . S
C87 H114 0.930 . S
C88 C83 1.382 . S
C88 C87 1.398 . S
C88 H115 0.929 . S
C89 O102 1.271 . S
C89 O103 1.251 . S
C90 O104 1.252 . S
C90 O105 1.272 . S
C91 Sm81 2.846 . S
C91 C92 1.506 . S
C91 O106 1.261 . S
C91 O107 1.242 . S
C92 C91 1.506 . S
C92 C93 1.358 . S
C92 C97 1.382 . S
C93 C92 1.358 . S
C93 C94 1.385 . S
C93 H116 0.930 . S
C94 C93 1.385 . S
C94 C95 1.395 . S
C94 H117 0.929 . S
C95 C94 1.395 . S
C95 C96 1.335 . S
C96 C95 1.335 . S
C96 C97 1.398 . S
C96 H118 0.930 . S
C97 C92 1.382 . S
C97 C96 1.398 . S
C97 H119 0.929 . S
C98 O108 1.271 . S
C98 O109 1.251 . S
C99 O110 1.252 . S
C99 O111 1.272 . S
O100 Sm80 2.543 . S
O100 C82 1.261 . S
O101 Sm80 2.450 . S
O101 C82 1.242 . S
O102 Sm80 2.681 . S
O102 Sm81 2.386 . S
O102 C89 1.271 . S
O103 Sm80 2.464 . S
O103 C89 1.251 . S
O104 Sm80 2.396 . S
O104 C90 1.252 . S
O105 Sm81 2.408 . S
O105 C90 1.272 . S
O106 Sm81 2.543 . S
O106 C91 1.261 . S
O107 Sm81 2.450 . S
O107 C91 1.242 . S
O108 Sm80 2.386 . S
O108 Sm81 2.681 . S
O108 C98 1.271 . S
O109 Sm81 2.464 . S
O109 C98 1.251 . S
O110 Sm81 2.396 . S
O110 C99 1.252 . S
O111 Sm80 2.408 . S
O111 C99 1.272 . S
H112 C84 0.930 . S
H113 C85 0.929 . S
H114 C87 0.930 . S
H115 C88 0.929 . S
H116 C93 0.930 . S
H117 C94 0.929 . S
H118 C96 0.930 . S
H119 C97 0.929 . S
O120 Cd121 2.300 . S
O120 C127 1.275 . S
Cd121 O120 2.300 . S
Cd121 O129 2.381 . S
Cd121 O130 2.378 . S
O122 Cd123 2.385 . S
O122 C127 1.255 1_565 S
Cd123 O122 2.385 . S
Cd123 O124 2.317 . S
O124 Cd123 2.317 . S
O124 C125 1.232 . S
C125 O124 1.232 . S
C125 O126 1.218 . S
O126 C125 1.218 . S
C127 O120 1.275 . S
C127 O122 1.255 1_545 S
C128 O129 1.258 . S
C128 O130 1.256 . S
O129 Cd121 2.381 . S
O129 C128 1.258 . S
O130 Cd121 2.378 . S
O130 C128 1.256 . S
O131 Cd132 2.300 . S
O131 C138 1.275 . S
Cd132 O131 2.300 . S
Cd132 O140 2.381 . S
Cd132 O141 2.378 . S
O133 Cd134 2.385 . S
O133 C138 1.255 . S
Cd134 O133 2.385 . S
Cd134 O135 2.317 . S
O135 Cd134 2.317 . S
O135 C136 1.232 . S
C136 O135 1.232 . S
C136 O137 1.218 . S
O137 C136 1.218 . S
C138 O131 1.275 . S
C138 O133 1.255 . S
C139 O140 1.258 . S
C139 O141 1.256 . S
O140 Cd132 2.381 . S
O140 C139 1.258 . S
O141 Cd132 2.378 . S
O141 C139 1.256 . S
O142 Cd143 2.300 1_554 S
O142 C149 1.275 . S
Cd143 O142 2.300 1_556 S
Cd143 O151 2.381 . S
Cd143 O152 2.378 . S
O144 Cd145 2.385 . S
O144 C149 1.255 1_656 S
Cd145 O144 2.385 . S
Cd145 O146 2.317 . S
O146 Cd145 2.317 . S
O146 C147 1.232 . S
C147 O146 1.232 . S
C147 O148 1.218 . S
O148 C147 1.218 . S
C149 O142 1.275 . S
C149 O144 1.255 1_454 S
C150 O151 1.258 . S
C150 O152 1.256 . S
O151 Cd143 2.381 . S
O151 C150 1.258 . S
O152 Cd143 2.378 . S
O152 C150 1.256 . S
O153 Cd154 2.300 . S
O153 C160 1.275 1_455 S
Cd154 O153 2.300 . S
Cd154 O162 2.381 . S
Cd154 O163 2.378 . S
O155 Cd156 2.385 . S
O155 C160 1.255 . S
Cd156 O155 2.385 . S
Cd156 O157 2.317 . S
O157 Cd156 2.317 . S
O157 C158 1.232 . S
C158 O157 1.232 . S
C158 O159 1.218 . S
O159 C158 1.218 . S
C160 O153 1.275 1_655 S
C160 O155 1.255 . S
C161 O162 1.258 . S
C161 O163 1.256 . S
O162 Cd154 2.381 . S
O162 C161 1.258 . S
O163 Cd154 2.378 . S
O163 C161 1.256 . S
O164 Cd165 2.300 . S
O164 C171 1.275 1_565 S
Cd165 O164 2.300 . S
Cd165 O173 2.381 . S
Cd165 O174 2.378 . S
O166 Cd167 2.385 . S
O166 C171 1.255 . S
Cd167 O166 2.385 . S
Cd167 O168 2.317 . S
O168 Cd167 2.317 . S
O168 C169 1.232 . S
C169 O168 1.232 . S
C169 O170 1.218 . S
O170 C169 1.218 . S
C171 O164 1.275 1_545 S
C171 O166 1.255 . S
C172 O173 1.258 . S
C172 O174 1.256 . S
O173 Cd165 2.381 . S
O173 C172 1.258 . S
O174 Cd165 2.378 . S
O174 C172 1.256 . S
O175 Cd176 2.300 1_556 S
O175 C182 1.275 . S
Cd176 O175 2.300 1_554 S
Cd176 O184 2.381 . S
Cd176 O185 2.378 . S
O177 Cd178 2.385 . S
O177 C182 1.255 1_554 S
Cd178 O177 2.385 . S
Cd178 O179 2.317 . S
O179 Cd178 2.317 . S
O179 C180 1.232 . S
C180 O179 1.232 . S
C180 O181 1.218 . S
O181 C180 1.218 . S
C182 O175 1.275 . S
C182 O177 1.255 1_556 S
C183 O184 1.258 . S
C183 O185 1.256 . S
O184 Cd176 2.381 . S
O184 C183 1.258 . S
O185 Cd176 2.378 . S
O185 C183 1.256 . S
C6 C180 3.591 . S
C59 C158 2.246 . S
C86 C172 2.252 . S
C15 C183 2.584 . S
C161 C50 2.609 . S
C169 C95 2.179 . S
C46 C136 1.873 . S
C99 C147 4.663 . S
C10 C125 2.333 . S
C139 C55 1.610 . S
C150 C90 4.604 . S
C19 C128 2.466 . S
C149 C18 1.888 . S
C49 C127 1.051 . S
C98 C138 1.349 . S
C171 C58 1.215 . S
C182 C89 1.070 . S
C9 C160 1.160 1_455 S
