# Generated by pormake.
# Topology pth, (4,4)-cn, num edge types: 1
# Building blocks:
#     Node 0, Type 0, BuildingBlock: QUQFOY_clean_sbu_3, # of connection points: 4
#     Node 1, Type 0, BuildingBlock: QUQFOY_clean_sbu_3, # of connection points: 4
#     Node 2, Type 0, BuildingBlock: QUQFOY_clean_sbu_3, # of connection points: 4
#     Node 3, Type 1, BuildingBlock: NAWXER_clean_sbu_0, # of connection points: 4
#     Node 4, Type 1, BuildingBlock: NAWXER_clean_sbu_0, # of connection points: 4
#     Node 5, Type 1, BuildingBlock: NAWXER_clean_sbu_0, # of connection points: 4
#     Edge 6, Type (0, 1), BuildingBlock: AJUNOK_clean_linker_0, # of connection points: 2
#     Edge 7, Type (0, 1), BuildingBlock: AJUNOK_clean_linker_0, # of connection points: 2
#     Edge 8, Type (0, 1), BuildingBlock: AJUNOK_clean_linker_0, # of connection points: 2
#     Edge 9, Type (0, 1), BuildingBlock: AJUNOK_clean_linker_0, # of connection points: 2
#     Edge 10, Type (0, 1), BuildingBlock: AJUNOK_clean_linker_0, # of connection points: 2
#     Edge 11, Type (0, 1), BuildingBlock: AJUNOK_clean_linker_0, # of connection points: 2
#     Edge 12, Type (0, 1), BuildingBlock: AJUNOK_clean_linker_0, # of connection points: 2
#     Edge 13, Type (0, 1), BuildingBlock: AJUNOK_clean_linker_0, # of connection points: 2
#     Edge 14, Type (0, 1), BuildingBlock: AJUNOK_clean_linker_0, # of connection points: 2
#     Edge 15, Type (0, 1), BuildingBlock: AJUNOK_clean_linker_0, # of connection points: 2
#     Edge 16, Type (0, 1), BuildingBlock: AJUNOK_clean_linker_0, # of connection points: 2
#     Edge 17, Type (0, 1), BuildingBlock: AJUNOK_clean_linker_0, # of connection points: 2
# Relax obj value: 0.004
# Max RMSD: 0.054
# Mean RMSD: 0.030
data_MOF--net-pth--node1-QUQFOY_clean_sbu_3--node2-NAWXER_clean_sbu_0--edge1-AJUNOK_clean_linker_0
_symmetry_space_group_name_H-M    P1
_symmetry_Int_Tables_number       1
_symmetry_cell_setting            triclinic
loop_
_symmetry_equiv_pos_as_xyz
'x, y, z'
_cell_length_a     17.060745
_cell_length_b     16.954877
_cell_length_c     43.75365
_cell_angle_alpha  90.059628
_cell_angle_beta   90.686985
_cell_angle_gamma 120.69677
loop_
_atom_site_label
_atom_site_type_symbol
_atom_site_fract_x
_atom_site_fract_y
_atom_site_fract_z
_atom_type_partial_charge
C0 C 0.98493 0.26163 0.07697 0.0
O1 O 0.94742 0.26019 0.05156 0.0
Cd2 Cd 0.93829 0.16983 0.00795 0.0
O3 O 0.02278 0.21394 0.08079 0.0
Cd4 Cd 0.04296 0.0988 0.05172 0.0
C5 C 0.16179 0.23265 0.99249 0.0
O6 O 0.88907 0.02309 0.02879 0.0
O7 O 0.97712 0.97542 0.01346 0.0
O8 O 0.01209 0.0099 0.09788 0.0
C9 C 0.89928 0.96782 0.01229 0.0
O10 O 0.08724 0.22779 0.98472 0.0
C11 C 0.08402 0.00529 0.09806 0.0
O12 O 0.16845 0.19867 0.01766 0.0
O13 O 0.13996 0.04689 0.07677 0.0
C14 C 0.2355 0.10165 0.41154 0.0
O15 O 0.28014 0.14063 0.38773 0.0
Cd16 Cd 0.22283 0.18977 0.34602 0.0
O17 O 0.15737 0.09234 0.41544 0.0
Cd18 Cd 0.0556 0.12993 0.38575 0.0
C19 C 0.03331 0.981 0.33099 0.0
O20 O 0.1571 0.27915 0.36058 0.0
O21 O 0.02406 0.1904 0.34037 0.0
O22 O 0.02059 0.19535 0.43004 0.0
C23 C 0.09672 0.2682 0.34097 0.0
O24 O 0.10815 0.04798 0.32163 0.0
C25 C 0.93515 0.13983 0.42875 0.0
O26 O 0.99963 0.98596 0.35627 0.0
O27 O 0.90641 0.07818 0.40806 0.0
C28 C 0.84702 0.0692 0.69059 0.0
O29 O 0.83933 0.10286 0.71551 0.0
Cd30 Cd 0.95129 0.15651 0.75638 0.0
O31 O 0.91827 0.06497 0.68585 0.0
Cd32 Cd 0.05827 0.10447 0.71589 0.0
C33 C 0.94304 0.95704 0.77261 0.0
O34 O 0.10443 0.25635 0.73983 0.0
O35 O 0.1657 0.18035 0.7571 0.0
O36 O 0.15471 0.16867 0.67086 0.0
C37 C 0.16583 0.25512 0.7562 0.0
O38 O 0.93324 0.0222 0.78231 0.0
C39 C 0.18715 0.11603 0.67206 0.0
O40 O 0.97908 0.96255 0.74676 0.0
O41 O 0.156 0.05511 0.69267 0.0
C42 C 0.96816 0.67306 0.25954 0.0
C43 C 0.983 0.48301 0.17827 0.0
O44 O 0.04938 0.69708 0.25171 0.0
Zn45 Zn 0.11812 0.65406 0.22162 0.0
O46 O 0.90046 0.60226 0.2476 0.0
Zn47 Zn 0.97059 0.57213 0.22 0.0
O48 O 0.0349 0.52112 0.24878 0.0
O49 O 0.184 0.61642 0.24941 0.0
O50 O 0.91108 0.4748 0.18983 0.0
O51 O 0.06145 0.54541 0.18832 0.0
O52 O 0.18016 0.7625 0.19528 0.0
O53 O 0.03009 0.68886 0.19154 0.0
C54 C 0.11469 0.54217 0.25811 0.0
C55 C 0.10789 0.75584 0.18386 0.0
C56 C 0.59382 0.00119 0.5921 0.0
C57 C 0.40806 0.01142 0.5078 0.0
O58 O 0.5306 0.9311 0.57816 0.0
Zn59 Zn 0.49698 0.99823 0.54973 0.0
O60 O 0.61366 0.08186 0.58428 0.0
Zn61 Zn 0.57365 0.14781 0.55193 0.0
O62 O 0.52782 0.20869 0.57821 0.0
O63 O 0.44443 0.05752 0.57968 0.0
O64 O 0.47006 0.0898 0.5179 0.0
O65 O 0.39778 0.9381 0.51957 0.0
O66 O 0.61259 0.06273 0.52135 0.0
O67 O 0.68351 0.21313 0.52721 0.0
C68 C 0.45994 0.13609 0.58869 0.0
C69 C 0.67795 0.14273 0.5145 0.0
C70 C 0.47097 0.44656 0.91526 0.0
C71 C 0.71201 0.65282 0.84574 0.0
O72 O 0.46549 0.51504 0.90596 0.0
Zn73 Zn 0.53479 0.63222 0.87834 0.0
O74 O 0.53704 0.43694 0.90708 0.0
Zn75 Zn 0.59495 0.54518 0.88067 0.0
O76 O 0.64657 0.65381 0.91291 0.0
O77 O 0.57643 0.73228 0.90811 0.0
O78 O 0.70376 0.57926 0.85653 0.0
O79 O 0.65423 0.6768 0.85239 0.0
O80 O 0.44078 0.6049 0.84714 0.0
O81 O 0.4936 0.51009 0.84628 0.0
C82 C 0.63619 0.72006 0.92144 0.0
C83 C 0.43958 0.53524 0.83561 0.0
C84 C 0.05033 0.35058 0.12554 0.0
C85 C 0.98172 0.31655 0.10278 0.0
C86 C 0.0493 0.40341 0.15002 0.0
C87 C 0.97855 0.42252 0.15308 0.0
H88 H 0.10621 0.33773 0.12417 0.0
H89 H 0.10447 0.42941 0.16673 0.0
S90 S 0.78011 0.34556 0.10056 0.0
N91 N 0.83948 0.30358 0.08534 0.0
N92 N 0.8369 0.40138 0.13176 0.0
C93 C 0.90826 0.38702 0.13096 0.0
C94 C 0.91013 0.33461 0.10568 0.0
C95 C 0.77989 0.07452 0.45063 0.0
C96 C 0.87147 0.14581 0.45022 0.0
C97 C 0.71812 0.07606 0.47098 0.0
C98 C 0.74471 0.14932 0.49172 0.0
H99 H 0.75562 0.01597 0.4354 0.0
H100 H 0.64868 0.01854 0.47054 0.0
S101 S 0.97541 0.35567 0.49902 0.0
N102 N 0.98523 0.29397 0.47173 0.0
N103 N 0.86819 0.29674 0.50993 0.0
C104 C 0.83531 0.22257 0.49105 0.0
C105 C 0.89888 0.2207 0.4704 0.0
C106 C 0.90468 0.88081 0.82311 0.0
C107 C 0.90459 0.87261 0.79111 0.0
C108 C 0.84916 0.80503 0.84124 0.0
C109 C 0.79157 0.71824 0.82809 0.0
H110 H 0.94332 0.94756 0.83406 0.0
H111 H 0.84567 0.81597 0.86549 0.0
S112 S 0.77274 0.65768 0.74597 0.0
N113 N 0.84851 0.76874 0.74732 0.0
N114 N 0.74282 0.62607 0.78169 0.0
C115 C 0.79616 0.70712 0.79652 0.0
C116 C 0.85335 0.78451 0.77792 0.0
C117 C 0.02202 0.88662 0.13833 0.0
C118 C 0.097 0.94808 0.12086 0.0
C119 C 0.02765 0.82615 0.15852 0.0
C120 C 0.10902 0.825 0.16278 0.0
H121 H 0.95708 0.88319 0.13593 0.0
H122 H 0.9666 0.77931 0.17078 0.0
S123 S 0.32717 0.97515 0.12365 0.0
N124 N 0.25666 0.00615 0.10956 0.0
N125 N 0.26772 0.89296 0.14841 0.0
C126 C 0.18576 0.88777 0.14615 0.0
C127 C 0.1796 0.94904 0.12499 0.0
C128 C 0.23295 0.03765 0.46357 0.0
C129 C 0.27412 0.06625 0.43477 0.0
C130 C 0.27229 0.01101 0.48671 0.0
C131 C 0.35313 0.01059 0.48165 0.0
H132 H 0.17205 0.03955 0.4688 0.0
H133 H 0.24219 0.99572 0.50918 0.0
S134 S 0.48404 0.07044 0.41007 0.0
N135 N 0.39757 0.08532 0.40216 0.0
N136 N 0.47075 0.03581 0.44587 0.0
C137 C 0.39248 0.0343 0.45273 0.0
C138 C 0.35308 0.06181 0.4292 0.0
C139 C 0.32307 0.346 0.77689 0.0
C140 C 0.23682 0.33632 0.77306 0.0
C141 C 0.38981 0.41495 0.79552 0.0
C142 C 0.37295 0.47667 0.81159 0.0
H143 H 0.33867 0.29839 0.7659 0.0
H144 H 0.45426 0.41743 0.79822 0.0
S145 S 0.15944 0.48409 0.80775 0.0
N146 N 0.13921 0.39744 0.78508 0.0
N147 N 0.26473 0.52684 0.82098 0.0
C148 C 0.28842 0.47091 0.80679 0.0
C149 C 0.22026 0.40067 0.78734 0.0
C150 C 0.79065 0.01734 0.63681 0.0
C151 C 0.77426 0.03712 0.66659 0.0
C152 C 0.72726 0.99676 0.61291 0.0
C153 C 0.64475 0.99369 0.61806 0.0
H154 H 0.85476 0.02209 0.6315 0.0
H155 H 0.74522 0.98852 0.58994 0.0
S156 S 0.56358 0.03044 0.69177 0.0
N157 N 0.66471 0.04451 0.7 0.0
N158 N 0.54677 0.00639 0.65485 0.0
C159 C 0.62503 0.00814 0.6478 0.0
C160 C 0.68937 0.02949 0.67215 0.0
C161 C 0.83919 0.83699 0.97563 0.0
C162 C 0.82808 0.90413 0.99034 0.0
C163 C 0.77599 0.77781 0.95384 0.0
C164 C 0.6988 0.7833 0.94553 0.0
H165 H 0.89767 0.83007 0.98084 0.0
H166 H 0.78902 0.72812 0.94311 0.0
S167 S 0.63681 0.94634 0.97771 0.0
N168 N 0.73297 0.97216 0.99557 0.0
N169 N 0.61397 0.86068 0.95421 0.0
C170 C 0.68611 0.84963 0.96021 0.0
C171 C 0.75058 0.90993 0.98274 0.0
C172 C 0.96641 0.81102 0.32693 0.0
C173 C 0.99111 0.89517 0.31289 0.0
C174 C 0.95014 0.73433 0.30934 0.0
C175 C 0.95626 0.73966 0.27733 0.0
H176 H 0.96719 0.80664 0.35162 0.0
H177 H 0.93914 0.67306 0.32087 0.0
S178 S 0.00605 0.93993 0.22965 0.0
N179 N 0.01162 0.97597 0.26513 0.0
N180 N 0.97963 0.83197 0.2323 0.0
C181 C 0.97332 0.82087 0.2631 0.0
C182 C 0.99094 0.89871 0.28084 0.0
C183 C 0.28151 0.05667 0.65005 0.0
C184 C 0.25907 0.12567 0.65098 0.0
C185 C 0.34839 0.06267 0.63043 0.0
C186 C 0.39665 0.13838 0.61107 0.0
H187 H 0.24632 0.99659 0.66432 0.0
H188 H 0.36191 0.00677 0.63032 0.0
S189 S 0.36726 0.33992 0.60553 0.0
N190 N 0.29275 0.27409 0.63138 0.0
N191 N 0.41934 0.28525 0.59457 0.0
C192 C 0.37697 0.20925 0.61225 0.0
C193 C 0.30782 0.20278 0.6321 0.0
C194 C 0.33028 0.3086 0.98241 0.0
C195 C 0.24074 0.27748 0.9716 0.0
C196 C 0.406 0.35795 0.9634 0.0
C197 C 0.39416 0.37691 0.93303 0.0
H198 H 0.34231 0.29816 0.00602 0.0
H199 H 0.47401 0.38563 0.97297 0.0
S200 S 0.17512 0.30016 0.89215 0.0
N201 N 0.14557 0.26134 0.92724 0.0
N202 N 0.2875 0.35418 0.89206 0.0
C203 C 0.30533 0.34162 0.92147 0.0
C204 C 0.22866 0.29184 0.9406 0.0
C205 C 0.16953 0.43303 0.32454 0.0
C206 C 0.11175 0.33879 0.31809 0.0
C207 C 0.17506 0.50021 0.30426 0.0
C208 C 0.12299 0.4747 0.27703 0.0
H209 H 0.20745 0.45494 0.34595 0.0
H210 H 0.2165 0.57194 0.31062 0.0
S211 S 0.97509 0.23822 0.24694 0.0
N212 N 0.01138 0.22453 0.28054 0.0
N213 N 0.02166 0.35001 0.24282 0.0
C214 C 0.07013 0.3811 0.26946 0.0
C215 C 0.0645 0.31326 0.2899 0.0
loop_
_geom_bond_atom_site_label_1
_geom_bond_atom_site_label_2
_geom_bond_distance
_geom_bond_site_symmetry_2
_ccdc_geom_bond_type
C0 O1 1.306 1_455 S
C0 O3 1.160 . S
O1 C0 1.306 1_655 S
O1 Cd2 2.228 . S
Cd2 O1 2.228 . S
Cd2 O6 2.273 . S
Cd2 O10 2.277 1_655 S
O3 C0 1.160 . S
O3 Cd4 2.203 . S
Cd4 O3 2.203 . S
Cd4 O6 2.411 1_455 S
Cd4 O7 2.333 1_445 S
Cd4 O8 2.352 1_445 S
Cd4 O12 2.277 . S
Cd4 O13 2.356 . S
C5 O10 1.209 . S
C5 O12 1.226 . S
O6 Cd2 2.273 . S
O6 Cd4 2.411 1_655 S
O6 C9 1.320 1_545 S
O7 Cd4 2.333 1_665 S
O7 C9 1.214 . S
O8 Cd4 2.352 1_665 S
O8 C11 1.258 1_655 S
C9 O6 1.320 1_565 S
C9 O7 1.214 . S
O10 Cd2 2.277 1_455 S
O10 C5 1.209 . S
C11 O8 1.258 1_455 S
C11 O13 1.282 1_565 S
O12 Cd4 2.277 . S
O12 C5 1.226 . S
O13 Cd4 2.356 . S
O13 C11 1.282 1_545 S
C14 O15 1.306 . S
C14 O17 1.160 . S
O15 C14 1.306 . S
O15 Cd16 2.228 . S
Cd16 O15 2.228 . S
Cd16 O20 2.273 . S
Cd16 O24 2.277 . S
O17 C14 1.160 . S
O17 Cd18 2.203 . S
Cd18 O17 2.203 . S
Cd18 O20 2.411 . S
Cd18 O21 2.333 1_455 S
Cd18 O22 2.352 1_455 S
Cd18 O26 2.277 1_445 S
Cd18 O27 2.356 1_455 S
C19 O24 1.209 1_565 S
C19 O26 1.226 1_455 S
O20 Cd16 2.273 . S
O20 Cd18 2.411 . S
O20 C23 1.320 . S
O21 Cd18 2.333 1_655 S
O21 C23 1.214 1_655 S
O22 Cd18 2.352 1_655 S
O22 C25 1.258 . S
C23 O20 1.320 . S
C23 O21 1.214 1_455 S
O24 Cd16 2.277 . S
O24 C19 1.209 1_545 S
C25 O22 1.258 . S
C25 O27 1.282 . S
O26 Cd18 2.277 1_665 S
O26 C19 1.226 1_655 S
O27 Cd18 2.356 1_655 S
O27 C25 1.282 . S
C28 O29 1.306 . S
C28 O31 1.160 . S
O29 C28 1.306 . S
O29 Cd30 2.228 . S
Cd30 O29 2.228 . S
Cd30 O34 2.273 1_655 S
Cd30 O38 2.277 . S
O31 C28 1.160 . S
O31 Cd32 2.203 1_655 S
Cd32 O31 2.203 1_455 S
Cd32 O34 2.411 . S
Cd32 O35 2.333 . S
Cd32 O36 2.352 . S
Cd32 O40 2.277 1_445 S
Cd32 O41 2.356 . S
C33 O38 1.209 1_565 S
C33 O40 1.226 . S
O34 Cd30 2.273 1_455 S
O34 Cd32 2.411 . S
O34 C37 1.320 . S
O35 Cd32 2.333 . S
O35 C37 1.214 . S
O36 Cd32 2.352 . S
O36 C39 1.258 . S
C37 O34 1.320 . S
C37 O35 1.214 . S
O38 Cd30 2.277 . S
O38 C33 1.209 1_545 S
C39 O36 1.258 . S
C39 O41 1.282 . S
O40 Cd32 2.277 1_665 S
O40 C33 1.226 . S
O41 Cd32 2.356 . S
O41 C39 1.282 . S
C42 O44 1.247 . S
C42 O46 1.258 1_455 S
C43 O50 1.247 1_455 S
C43 O51 1.258 . S
O44 C42 1.247 . S
O44 Zn45 2.028 . S
Zn45 O44 2.028 . S
Zn45 O49 2.035 . S
Zn45 O51 2.035 . S
Zn45 O52 2.028 . S
O46 C42 1.258 1_655 S
O46 Zn47 2.035 . S
Zn47 O46 2.035 . S
Zn47 O48 2.028 . S
Zn47 O50 2.028 . S
Zn47 O53 2.035 . S
O48 Zn47 2.028 . S
O48 C54 1.247 1_655 S
O49 Zn45 2.035 . S
O49 C54 1.258 . S
O50 C43 1.247 1_655 S
O50 Zn47 2.028 . S
O51 C43 1.258 . S
O51 Zn45 2.035 . S
O52 Zn45 2.028 . S
O52 C55 1.247 . S
O53 Zn47 2.035 . S
O53 C55 1.258 1_655 S
C54 O48 1.247 1_455 S
C54 O49 1.258 . S
C55 O52 1.247 . S
C55 O53 1.258 1_455 S
C56 O58 1.247 . S
C56 O60 1.258 . S
C57 O64 1.247 . S
C57 O65 1.258 . S
O58 C56 1.247 . S
O58 Zn59 2.028 1_545 S
Zn59 O58 2.028 1_565 S
Zn59 O63 2.035 1_565 S
Zn59 O65 2.035 1_565 S
Zn59 O66 2.028 1_565 S
O60 C56 1.258 . S
O60 Zn61 2.035 . S
Zn61 O60 2.035 . S
Zn61 O62 2.028 . S
Zn61 O64 2.028 . S
Zn61 O67 2.035 . S
O62 Zn61 2.028 . S
O62 C68 1.247 . S
O63 Zn59 2.035 1_545 S
O63 C68 1.258 . S
O64 C57 1.247 . S
O64 Zn61 2.028 . S
O65 C57 1.258 . S
O65 Zn59 2.035 1_545 S
O66 Zn59 2.028 1_545 S
O66 C69 1.247 . S
O67 Zn61 2.035 . S
O67 C69 1.258 . S
C68 O62 1.247 . S
C68 O63 1.258 . S
C69 O66 1.247 . S
C69 O67 1.258 . S
C70 O72 1.247 . S
C70 O74 1.258 . S
C71 O78 1.247 . S
C71 O79 1.258 . S
O72 C70 1.247 . S
O72 Zn73 2.028 . S
Zn73 O72 2.028 . S
Zn73 O77 2.035 . S
Zn73 O79 2.035 . S
Zn73 O80 2.028 . S
O74 C70 1.258 . S
O74 Zn75 2.035 . S
Zn75 O74 2.035 . S
Zn75 O76 2.028 . S
Zn75 O78 2.028 . S
Zn75 O81 2.035 . S
O76 Zn75 2.028 . S
O76 C82 1.247 . S
O77 Zn73 2.035 . S
O77 C82 1.258 . S
O78 C71 1.247 . S
O78 Zn75 2.028 . S
O79 C71 1.258 . S
O79 Zn73 2.035 . S
O80 Zn73 2.028 . S
O80 C83 1.247 . S
O81 Zn75 2.035 . S
O81 C83 1.258 . S
C82 O76 1.247 . S
C82 O77 1.258 . S
C83 O80 1.247 . S
C83 O81 1.258 . S
C84 C85 1.369 . S
C84 C86 1.419 . S
C84 H88 0.930 . S
C85 C84 1.369 . S
C85 C94 1.429 1_455 S
C86 C84 1.419 . S
C86 C87 1.363 . S
C86 H89 0.929 . S
C87 C86 1.363 . S
C87 C93 1.428 1_455 S
H88 C84 0.930 . S
H89 C86 0.929 . S
S90 N91 1.613 . S
S90 N92 1.610 . S
N91 S90 1.613 . S
N91 C94 1.350 . S
N92 S90 1.610 . S
N92 C93 1.351 . S
C93 C87 1.428 1_655 S
C93 N92 1.351 . S
C93 C94 1.434 . S
C94 C85 1.429 1_655 S
C94 N91 1.350 . S
C94 C93 1.434 . S
C95 C96 1.369 . S
C95 C97 1.419 . S
C95 H99 0.930 1_545 S
C96 C95 1.369 . S
C96 C105 1.429 . S
C97 C95 1.419 . S
C97 C98 1.363 . S
C97 H100 0.929 1_545 S
C98 C97 1.363 . S
C98 C104 1.428 . S
H99 C95 0.930 1_565 S
H100 C97 0.929 1_565 S
S101 N102 1.613 . S
S101 N103 1.610 . S
N102 S101 1.613 . S
N102 C105 1.350 . S
N103 S101 1.610 . S
N103 C104 1.351 . S
C104 C98 1.428 . S
C104 N103 1.351 . S
C104 C105 1.434 . S
C105 C96 1.429 . S
C105 N102 1.350 . S
C105 C104 1.434 . S
C106 C107 1.369 . S
C106 C108 1.419 . S
C106 H110 0.930 1_565 S
C107 C106 1.369 . S
C107 C116 1.429 . S
C108 C106 1.419 . S
C108 C109 1.363 . S
C108 H111 0.929 . S
C109 C108 1.363 . S
C109 C115 1.428 . S
H110 C106 0.930 1_545 S
H111 C108 0.929 . S
S112 N113 1.613 . S
S112 N114 1.610 . S
N113 S112 1.613 . S
N113 C116 1.350 . S
N114 S112 1.610 . S
N114 C115 1.351 . S
C115 C109 1.428 . S
C115 N114 1.351 . S
C115 C116 1.434 . S
C116 C107 1.429 . S
C116 N113 1.350 . S
C116 C115 1.434 . S
C117 C118 1.369 1_655 S
C117 C119 1.419 . S
C117 H121 0.930 . S
C118 C117 1.369 1_455 S
C118 C127 1.429 . S
C119 C117 1.419 . S
C119 C120 1.363 1_655 S
C119 H122 0.929 . S
C120 C119 1.363 1_455 S
C120 C126 1.428 . S
H121 C117 0.930 . S
H122 C119 0.929 . S
S123 N124 1.613 . S
S123 N125 1.610 . S
N124 S123 1.613 . S
N124 C127 1.350 . S
N125 S123 1.610 . S
N125 C126 1.351 . S
C126 C120 1.428 . S
C126 N125 1.351 . S
C126 C127 1.434 . S
C127 C118 1.429 . S
C127 N124 1.350 . S
C127 C126 1.434 . S
C128 C129 1.369 . S
C128 C130 1.419 . S
C128 H132 0.930 . S
C129 C128 1.369 . S
C129 C138 1.429 . S
C130 C128 1.419 . S
C130 C131 1.363 . S
C130 H133 0.929 . S
C131 C130 1.363 . S
C131 C137 1.428 . S
H132 C128 0.930 . S
H133 C130 0.929 . S
S134 N135 1.613 . S
S134 N136 1.610 . S
N135 S134 1.613 . S
N135 C138 1.350 . S
N136 S134 1.610 . S
N136 C137 1.351 . S
C137 C131 1.428 . S
C137 N136 1.351 . S
C137 C138 1.434 . S
C138 C129 1.429 . S
C138 N135 1.350 . S
C138 C137 1.434 . S
C139 C140 1.369 . S
C139 C141 1.419 . S
C139 H143 0.930 . S
C140 C139 1.369 . S
C140 C149 1.429 . S
C141 C139 1.419 . S
C141 C142 1.363 . S
C141 H144 0.929 . S
C142 C141 1.363 . S
C142 C148 1.428 . S
H143 C139 0.930 . S
H144 C141 0.929 . S
S145 N146 1.613 . S
S145 N147 1.610 . S
N146 S145 1.613 . S
N146 C149 1.350 . S
N147 S145 1.610 . S
N147 C148 1.351 . S
C148 C142 1.428 . S
C148 N147 1.351 . S
C148 C149 1.434 . S
C149 C140 1.429 . S
C149 N146 1.350 . S
C149 C148 1.434 . S
C150 C151 1.369 . S
C150 C152 1.419 . S
C150 H154 0.930 . S
C151 C150 1.369 . S
C151 C160 1.429 . S
C152 C150 1.419 . S
C152 C153 1.363 . S
C152 H155 0.929 . S
C153 C152 1.363 . S
C153 C159 1.428 . S
H154 C150 0.930 . S
H155 C152 0.929 . S
S156 N157 1.613 1_565 S
S156 N158 1.610 1_565 S
N157 S156 1.613 1_545 S
N157 C160 1.350 . S
N158 S156 1.610 1_545 S
N158 C159 1.351 . S
C159 C153 1.428 . S
C159 N158 1.351 . S
C159 C160 1.434 . S
C160 C151 1.429 . S
C160 N157 1.350 . S
C160 C159 1.434 . S
C161 C162 1.369 . S
C161 C163 1.419 . S
C161 H165 0.930 . S
C162 C161 1.369 . S
C162 C171 1.429 . S
C163 C161 1.419 . S
C163 C164 1.363 . S
C163 H166 0.929 . S
C164 C163 1.363 . S
C164 C170 1.428 . S
H165 C161 0.930 . S
H166 C163 0.929 . S
S167 N168 1.613 . S
S167 N169 1.610 1_554 S
N168 S167 1.613 . S
N168 C171 1.350 1_554 S
N169 S167 1.610 1_556 S
N169 C170 1.351 . S
C170 C164 1.428 . S
C170 N169 1.351 . S
C170 C171 1.434 . S
C171 C162 1.429 . S
C171 N168 1.350 1_556 S
C171 C170 1.434 . S
C172 C173 1.369 1_655 S
C172 C174 1.419 1_655 S
C172 H176 0.930 . S
C173 C172 1.369 1_455 S
C173 C182 1.429 . S
C174 C172 1.419 1_455 S
C174 C175 1.363 . S
C174 H177 0.929 1_455 S
C175 C174 1.363 . S
C175 C181 1.428 . S
H176 C172 0.930 . S
H177 C174 0.929 1_655 S
S178 N179 1.613 . S
S178 N180 1.610 1_545 S
N179 S178 1.613 . S
N179 C182 1.350 1_545 S
N180 S178 1.610 1_565 S
N180 C181 1.351 . S
C181 C175 1.428 . S
C181 N180 1.351 . S
C181 C182 1.434 . S
C182 C173 1.429 . S
C182 N179 1.350 1_565 S
C182 C181 1.434 . S
C183 C184 1.369 . S
C183 C185 1.419 . S
C183 H187 0.930 1_545 S
C184 C183 1.369 . S
C184 C193 1.429 . S
C185 C183 1.419 . S
C185 C186 1.363 . S
C185 H188 0.929 1_545 S
C186 C185 1.363 . S
C186 C192 1.428 . S
H187 C183 0.930 1_565 S
H188 C185 0.929 1_565 S
S189 N190 1.613 . S
S189 N191 1.610 . S
N190 S189 1.613 . S
N190 C193 1.350 . S
N191 S189 1.610 . S
N191 C192 1.351 . S
C192 C186 1.428 . S
C192 N191 1.351 . S
C192 C193 1.434 . S
C193 C184 1.429 . S
C193 N190 1.350 . S
C193 C192 1.434 . S
C194 C195 1.369 . S
C194 C196 1.419 . S
C194 H198 0.930 1_556 S
C195 C194 1.369 . S
C195 C204 1.429 . S
C196 C194 1.419 . S
C196 C197 1.363 . S
C196 H199 0.929 . S
C197 C196 1.363 . S
C197 C203 1.428 . S
H198 C194 0.930 1_554 S
H199 C196 0.929 . S
S200 N201 1.613 . S
S200 N202 1.610 . S
N201 S200 1.613 . S
N201 C204 1.350 . S
N202 S200 1.610 . S
N202 C203 1.351 . S
C203 C197 1.428 . S
C203 N202 1.351 . S
C203 C204 1.434 . S
C204 C195 1.429 . S
C204 N201 1.350 . S
C204 C203 1.434 . S
C205 C206 1.369 . S
C205 C207 1.419 . S
C205 H209 0.931 . S
C206 C205 1.369 . S
C206 C215 1.429 . S
C207 C205 1.419 . S
C207 C208 1.363 . S
C207 H210 0.929 . S
C208 C207 1.363 . S
C208 C214 1.428 . S
H209 C205 0.931 . S
H210 C207 0.929 . S
S211 N212 1.613 . S
S211 N213 1.610 . S
N212 S211 1.613 . S
N212 C215 1.350 . S
N213 S211 1.610 . S
N213 C214 1.351 . S
C214 C208 1.428 . S
C214 N213 1.351 . S
C214 C215 1.434 . S
C215 C206 1.429 . S
C215 N212 1.350 . S
C215 C214 1.434 . S
C87 C43 1.456 . S
C85 C0 1.457 . S
C96 C25 1.477 . S
C98 C69 1.476 . S
C107 C33 1.491 . S
C109 C71 1.490 . S
C118 C11 1.436 . S
C120 C55 1.434 . S
C131 C57 1.475 . S
C129 C14 1.472 . S
C140 C37 1.484 . S
C142 C83 1.488 . S
C153 C56 1.474 . S
C151 C28 1.471 . S
C162 C9 1.482 1_556 S
C164 C82 1.486 . S
C175 C42 1.509 . S
C173 C19 1.506 . S
C186 C68 1.474 . S
C184 C39 1.475 . S
C197 C70 1.490 . S
C195 C5 1.490 1_556 S
C206 C23 1.519 . S
C208 C54 1.526 . S
