# Generated by pormake.
# Topology pts, (4,4)-cn, num edge types: 1
# Building blocks:
#     Node 0, Type 0, BuildingBlock: MUDLON_clean_sbu_0, # of connection points: 4
#     Node 1, Type 0, BuildingBlock: MUDLON_clean_sbu_0, # of connection points: 4
#     Node 2, Type 1, BuildingBlock: QUQFOY_clean_sbu_1, # of connection points: 4
#     Node 3, Type 1, BuildingBlock: QUQFOY_clean_sbu_1, # of connection points: 4
#     Edge 4, Type (0, 1), BuildingBlock: EYOCIG_clean_linker_4, # of connection points: 2
#     Edge 5, Type (0, 1), BuildingBlock: EYOCIG_clean_linker_4, # of connection points: 2
#     Edge 6, Type (0, 1), BuildingBlock: EYOCIG_clean_linker_4, # of connection points: 2
#     Edge 7, Type (0, 1), BuildingBlock: EYOCIG_clean_linker_4, # of connection points: 2
#     Edge 8, Type (0, 1), BuildingBlock: EYOCIG_clean_linker_4, # of connection points: 2
#     Edge 9, Type (0, 1), BuildingBlock: EYOCIG_clean_linker_4, # of connection points: 2
#     Edge 10, Type (0, 1), BuildingBlock: EYOCIG_clean_linker_4, # of connection points: 2
#     Edge 11, Type (0, 1), BuildingBlock: EYOCIG_clean_linker_4, # of connection points: 2
# Relax obj value: 0.129
# Max RMSD: 0.243
# Mean RMSD: 0.143
data_MOF--net-pts--node1-MUDLON_clean_sbu_0--node2-QUQFOY_clean_sbu_1--edge1-EYOCIG_clean_linker_4
_symmetry_space_group_name_H-M    P1
_symmetry_Int_Tables_number       1
_symmetry_cell_setting            triclinic
loop_
_symmetry_equiv_pos_as_xyz
'x, y, z'
_cell_length_a     18.284735
_cell_length_b     18.819981
_cell_length_c     33.144761
_cell_angle_alpha  89.94784
_cell_angle_beta   90.036534
_cell_angle_gamma 89.879664
loop_
_atom_site_label
_atom_site_type_symbol
_atom_site_fract_x
_atom_site_fract_y
_atom_site_fract_z
_atom_type_partial_charge
Mg0 Mg 0.46663 0.03641 0.02775 0.0
C1 C 0.35715 1.00123 0.96421 0.0
O2 O 0.38382 0.93797 0.97196 0.0
C3 C 0.58679 1.00139 0.08516 0.0
O4 O 0.57543 0.93903 0.06875 0.0
C5 C 0.34544 1.02254 0.08577 0.0
O6 O 0.35431 0.95675 0.07356 0.0
O7 O 0.38603 0.07133 0.07158 0.0
O8 O 0.38212 0.05482 0.98279 0.0
O9 O 0.54793 0.07256 0.98457 0.0
C10 C 0.58053 1.02365 0.9651 0.0
O11 O 0.56252 0.95702 0.97119 0.0
O12 O 0.54844 0.05417 0.07419 0.0
Mg13 Mg 0.94814 0.52585 0.52659 0.0
C14 C -0.00096 0.62848 0.59114 0.0
O15 O 0.06271 0.5986 0.58453 0.0
C16 C 0.00283 0.41547 0.46776 0.0
O17 O 0.06652 0.43384 0.48256 0.0
C18 C 0.95906 0.63757 0.46713 0.0
O19 O 0.02724 0.62345 0.4768 0.0
O20 O 0.90751 0.60274 0.48362 0.0
O21 O 0.9434 0.60849 0.57158 0.0
O22 O 0.90746 0.4491 0.56961 0.0
C23 C 0.95831 0.41992 0.59001 0.0
O24 O 0.02646 0.43935 0.58428 0.0
O25 O 0.94526 0.44565 0.48015 0.0
O26 O 0.89512 0.96044 0.22746 0.0
Cd27 Cd -0.02138 0.95828 0.26925 0.0
Cd28 Cd 0.95479 0.09275 0.27016 0.0
O29 O 0.854 0.06444 0.24799 0.0
O30 O -0.01463 0.85958 0.29056 0.0
O31 O 0.95223 0.95213 0.32796 0.0
C32 C 0.96351 0.88465 0.32467 0.0
C33 C -0.03227 0.16828 0.32476 0.0
C34 C 0.84707 1.00912 0.22653 0.0
C35 C 0.08572 0.04386 0.22604 0.0
O36 O 0.03761 0.09234 0.22806 0.0
O37 O 0.07926 0.98727 0.24659 0.0
O38 O 0.94628 0.19193 0.29024 0.0
O39 O -0.01943 0.1012 0.32883 0.0
O40 O 0.89505 0.0933 0.82681 0.0
Cd41 Cd -0.02228 0.09362 0.78467 0.0
Cd42 Cd 0.95551 0.95788 0.78583 0.0
O43 O 0.85569 0.9868 0.80978 0.0
O44 O -0.01608 0.19274 0.76421 0.0
O45 O 0.95092 0.10129 0.72603 0.0
C46 C 0.96197 0.16866 0.72993 0.0
C47 C 0.96551 0.88091 0.73145 0.0
C48 C 0.84804 0.04411 0.82951 0.0
C49 C 0.08838 1.01058 0.82742 0.0
O50 O 0.04173 0.96079 0.82614 0.0
O51 O 0.07923 0.06678 0.80686 0.0
O52 O 0.94707 0.85798 0.76663 0.0
O53 O -0.02318 0.94805 0.72658 0.0
C54 C 0.24463 0.04609 0.14117 0.0
C55 C 0.29129 0.03803 0.11588 0.0
C56 C 0.19013 0.05009 0.17125 0.0
C57 C 0.14202 0.04843 0.19606 0.0
C58 C 0.9387 0.31645 0.6424 0.0
C59 C 0.94312 0.36384 0.61807 0.0
C60 C 0.94186 0.26143 0.6713 0.0
C61 C 0.95011 0.21674 0.69697 0.0
C62 C 0.68782 1.00954 0.14178 0.0
C63 C 0.64115 1.00861 0.1161 0.0
C64 C 0.74235 1.00731 0.17187 0.0
C65 C 0.79058 1.00706 0.19662 0.0
C66 C -0.01317 0.73231 0.64412 0.0
C67 C -0.00766 0.6849 0.61991 0.0
C68 C -0.01954 0.78708 0.67294 0.0
C69 C -0.02571 0.8318 0.69872 0.0
C70 C 0.25148 1.00987 0.91015 0.0
C71 C 0.29958 1.00884 0.93505 0.0
C72 C 0.19551 1.00803 0.88079 0.0
C73 C 0.14623 1.0081 0.85662 0.0
C74 C -0.00781 0.31387 0.41334 0.0
C75 C -0.00227 0.36019 0.4382 0.0
C76 C -0.01511 0.26032 0.38389 0.0
C77 C -0.02223 0.2165 0.35774 0.0
C78 C 0.68525 0.04804 0.91211 0.0
C79 C 0.63719 0.04007 0.9366 0.0
C80 C 0.74146 0.05159 0.88298 0.0
C81 C 0.79061 0.04958 0.85879 0.0
C82 C 0.94027 0.73973 0.41373 0.0
C83 C 0.94433 0.69256 0.43825 0.0
C84 C 0.94363 0.79389 0.38432 0.0
C85 C 0.95182 0.83758 0.35811 0.0
loop_
_geom_bond_atom_site_label_1
_geom_bond_atom_site_label_2
_geom_bond_distance
_geom_bond_site_symmetry_2
_ccdc_geom_bond_type
Mg0 O7 2.141 . S
Mg0 O8 2.048 1_554 S
Mg0 O9 2.048 1_554 S
Mg0 O12 2.141 . S
C1 O2 1.313 . S
C1 O8 1.195 1_565 S
O2 C1 1.313 . S
C3 O4 1.245 . S
C3 O12 1.289 1_565 S
O4 C3 1.245 . S
C5 O6 1.245 . S
C5 O7 1.289 1_565 S
O6 C5 1.245 . S
O7 Mg0 2.141 . S
O7 C5 1.289 1_545 S
O8 Mg0 2.048 1_556 S
O8 C1 1.195 1_545 S
O9 Mg0 2.048 1_556 S
O9 C10 1.195 1_545 S
C10 O9 1.195 1_565 S
C10 O11 1.313 . S
O11 C10 1.313 . S
O12 Mg0 2.141 . S
O12 C3 1.289 1_545 S
Mg13 O20 2.141 . S
Mg13 O21 2.048 . S
Mg13 O22 2.048 . S
Mg13 O25 2.141 . S
C14 O15 1.313 . S
C14 O21 1.195 1_455 S
O15 C14 1.313 . S
C16 O17 1.245 . S
C16 O25 1.289 1_455 S
O17 C16 1.245 . S
C18 O19 1.245 . S
C18 O20 1.289 1_455 S
O19 C18 1.245 . S
O20 Mg13 2.141 . S
O20 C18 1.289 1_655 S
O21 Mg13 2.048 . S
O21 C14 1.195 1_655 S
O22 Mg13 2.048 . S
O22 C23 1.195 1_655 S
C23 O22 1.195 1_455 S
C23 O24 1.313 . S
O24 C23 1.313 . S
O25 Mg13 2.141 . S
O25 C16 1.289 1_655 S
O26 Cd27 2.223 1_655 S
O26 C34 1.315 . S
Cd27 O26 2.223 1_455 S
Cd27 O30 2.297 1_455 S
Cd27 O31 2.439 1_455 S
Cd27 O37 2.240 1_565 S
Cd28 O29 2.240 1_545 S
Cd28 O36 2.223 1_655 S
Cd28 O38 2.297 1_655 S
Cd28 O39 2.439 1_655 S
O29 Cd28 2.240 1_565 S
O29 C34 1.279 . S
O30 Cd27 2.297 1_655 S
O30 C32 1.247 . S
O31 Cd27 2.439 1_655 S
O31 C32 1.208 . S
C32 O30 1.247 . S
C32 O31 1.208 . S
C33 O38 1.247 . S
C33 O39 1.208 . S
C34 O26 1.315 . S
C34 O29 1.279 . S
C35 O36 1.315 . S
C35 O37 1.279 . S
O36 Cd28 2.223 1_455 S
O36 C35 1.315 . S
O37 Cd27 2.240 1_545 S
O37 C35 1.279 . S
O38 Cd28 2.297 1_455 S
O38 C33 1.247 . S
O39 Cd28 2.439 1_455 S
O39 C33 1.208 . S
O40 Cd41 2.223 1_655 S
O40 C48 1.315 . S
Cd41 O40 2.223 1_455 S
Cd41 O44 2.297 1_455 S
Cd41 O45 2.439 1_455 S
Cd41 O51 2.240 1_545 S
Cd42 O43 2.240 1_565 S
Cd42 O50 2.223 1_655 S
Cd42 O52 2.297 1_655 S
Cd42 O53 2.439 1_655 S
O43 Cd42 2.240 1_545 S
O43 C48 1.279 . S
O44 Cd41 2.297 1_655 S
O44 C46 1.247 . S
O45 Cd41 2.439 1_655 S
O45 C46 1.208 . S
C46 O44 1.247 . S
C46 O45 1.208 . S
C47 O52 1.247 . S
C47 O53 1.208 . S
C48 O40 1.315 . S
C48 O43 1.279 . S
C49 O50 1.315 . S
C49 O51 1.279 . S
O50 Cd42 2.223 1_455 S
O50 C49 1.315 . S
O51 Cd41 2.240 1_565 S
O51 C49 1.279 . S
O52 Cd42 2.297 1_455 S
O52 C47 1.247 . S
O53 Cd42 2.439 1_455 S
O53 C47 1.208 . S
C54 C55 1.170 . S
C54 C56 1.380 . S
C55 C54 1.170 . S
C56 C54 1.380 . S
C56 C57 1.170 . S
C57 C56 1.170 . S
C58 C59 1.170 . S
C58 C60 1.380 . S
C59 C58 1.170 . S
C60 C58 1.380 . S
C60 C61 1.170 . S
C61 C60 1.170 . S
C62 C63 1.170 . S
C62 C64 1.380 . S
C63 C62 1.170 . S
C64 C62 1.380 . S
C64 C65 1.170 . S
C65 C64 1.170 . S
C66 C67 1.170 . S
C66 C68 1.380 . S
C67 C66 1.170 . S
C68 C66 1.380 . S
C68 C69 1.170 . S
C69 C68 1.170 . S
C70 C71 1.170 . S
C70 C72 1.380 . S
C71 C70 1.170 . S
C72 C70 1.380 . S
C72 C73 1.170 . S
C73 C72 1.170 . S
C74 C75 1.170 . S
C74 C76 1.380 . S
C75 C74 1.170 . S
C76 C74 1.380 . S
C76 C77 1.170 . S
C77 C76 1.170 . S
C78 C79 1.170 . S
C78 C80 1.380 . S
C79 C78 1.170 . S
C80 C78 1.380 . S
C80 C81 1.170 . S
C81 C80 1.170 . S
C82 C83 1.170 . S
C82 C84 1.380 . S
C83 C82 1.170 . S
C84 C82 1.380 . S
C84 C85 1.170 . S
C85 C84 1.170 . S
C57 C35 1.515 . S
C55 C5 1.510 1_545 S
C61 C46 1.554 . S
C59 C23 1.605 1_655 S
C65 C34 1.515 . S
C63 C3 1.478 . S
C69 C47 1.513 . S
C67 C14 1.585 . S
C73 C49 1.569 . S
C71 C1 1.538 . S
C77 C33 1.493 . S
C75 C16 1.496 . S
C81 C48 1.571 . S
C79 C10 1.571 1_545 S
C83 C18 1.543 1_655 S
C85 C32 1.495 . S
